* SPICE3 file created from DFFSNRNX1.ext - technology: sky130A

.subckt DFFSNRNX1 Q QN D CLK SN RN VDD GND
X0 GND QN.t7 a_4901_103.t0 GND sky130_fd_pr__nfet_01v8 ad=1.0746p pd=9.42u as=0p ps=0u w=0u l=0u
X1 a_599_989.t5 CLK.t0 VDD.t69  sky130_fd_pr__pfet_01v8 ad=0p pd=0u as=0p ps=0u w=2u l=0.15u
X2 VDD.t47 a_277_1050.t7 a_2201_1050.t6 VDD.t46 sky130_fd_pr__pfet_01v8 ad=0p pd=0u as=0p ps=0u w=2u l=0.15u
X3 VDD.t67 CLK.t1 a_1561_989.t6  sky130_fd_pr__pfet_01v8 ad=0p pd=0u as=0p ps=0u w=2u l=0.15u
X4 VDD.t35 RN.t0 a_277_1050.t2  ¬ñÛ@ sky130_fd_pr__pfet_01v8 ad=0p pd=0u as=0p ps=0u w=2u l=0.15u
X5 a_599_989.t6 a_1561_989.t7 VDD.t71 ð«ñÛ@ sky130_fd_pr__pfet_01v8 ad=0p pd=0u as=0p ps=0u w=2u l=0.15u
X6 VDD.t53 RN.t1 a_1561_989.t4  ¬ñÛ@ sky130_fd_pr__pfet_01v8 ad=0p pd=0u as=0p ps=0u w=2u l=0.15u
X7 QN.t6 a_599_989.t8 VDD.t23 ð«ñÛ@ sky130_fd_pr__pfet_01v8 ad=0p pd=0u as=0p ps=0u w=2u l=0.15u
X8 VDD.t59 SN.t1 a_2201_1050.t4  ¬ñÛ@ sky130_fd_pr__pfet_01v8 ad=0p pd=0u as=0p ps=0u w=2u l=0.15u
X9 a_1561_989.t5 CLK.t4 VDD.t65 ð«ñÛ@ sky130_fd_pr__pfet_01v8 ad=0p pd=0u as=0p ps=0u w=2u l=0.15u
X10 QN.t3 Q.t7 VDD.t37  ¬ñÛ@ sky130_fd_pr__pfet_01v8 ad=0p pd=0u as=0p ps=0u w=2u l=0.15u
X11 VDD.t15 a_599_989.t9 a_277_1050.t6 ð«ñÛ@ sky130_fd_pr__pfet_01v8 ad=0p pd=0u as=0p ps=0u w=2u l=0.15u
X12 GND D.t1 a_91_103.t0 GND sky130_fd_pr__nfet_01v8 ad=0p pd=0u as=0p ps=0u w=0u l=0u
X13 VDD.t19 a_1561_989.t8 a_2201_1050.t1  ¬ñÛ@ sky130_fd_pr__pfet_01v8 ad=0p pd=0u as=0p ps=0u w=2u l=0.15u
X14 a_1561_989.t2 a_2201_1050.t7 VDD.t21 ð«ñÛ@ sky130_fd_pr__pfet_01v8 ad=0p pd=0u as=0p ps=0u w=2u l=0.15u
X15 QN.t2 RN.t2 VDD.t27  ¬ñÛ@ sky130_fd_pr__pfet_01v8 ad=0p pd=0u as=0p ps=0u w=2u l=0.15u
X16 VDD.t41 QN.t8 Q.t1 ð«ñÛ@ sky130_fd_pr__pfet_01v8 ad=0p pd=0u as=0p ps=0u w=2u l=0.15u
X17 a_277_1050.t1 D.t0 VDD.t11  ¬ñÛ@ sky130_fd_pr__pfet_01v8 ad=0p pd=0u as=0p ps=0u w=2u l=0.15u
X18 VDD.t61 a_277_1050.t8 a_599_989.t3 ð«ñÛ@ sky130_fd_pr__pfet_01v8 ad=0p pd=0u as=0p ps=0u w=2u l=0.15u
X19 VDD.t17 a_1561_989.t9 a_599_989.t0  ¬ñÛ@ sky130_fd_pr__pfet_01v8 ad=0p pd=0u as=0p ps=0u w=2u l=0.15u
X20 VDD.t39 SN.t2 Q.t6 ð«ñÛ@ sky130_fd_pr__pfet_01v8 ad=0p pd=0u as=0p ps=0u w=2u l=0.15u
X21 QN Q.t8 a_4220_210.t0 GND sky130_fd_pr__nfet_01v8 ad=1.791p pd=1.57u as=0p ps=0u w=0u l=0u
X22 a_277_1050.t0 RN.t3 VDD.t1  ¬ñÛ@ sky130_fd_pr__pfet_01v8 ad=0p pd=0u as=0p ps=0u w=2u l=0.15u
X23 VDD.t63 CLK.t5 a_599_989.t4 ð«ñÛ@ sky130_fd_pr__pfet_01v8 ad=0p pd=0u as=0p ps=0u w=2u l=0.15u
X24 a_2201_1050.t0 SN.t3 VDD.t5  ¬ñÛ@ sky130_fd_pr__pfet_01v8 ad=0p pd=0u as=0p ps=0u w=2u l=0.15u
X25 a_1561_989.t3 RN.t4 VDD.t31 ð«ñÛ@ sky130_fd_pr__pfet_01v8 ad=0p pd=0u as=0p ps=0u w=2u l=0.15u
X26 VDD.t25 a_1561_989.t10 Q.t4  ¬ñÛ@ sky130_fd_pr__pfet_01v8 ad=0p pd=0u as=0p ps=0u w=2u l=0.15u
X27 GND a_277_1050.t11 a_2015_103.t0 GND sky130_fd_pr__nfet_01v8 ad=0p pd=0u as=0p ps=0u w=0u l=0u
X28 Q a_1561_989.t15 a_5182_210.t0 GND sky130_fd_pr__nfet_01v8 ad=1.791p pd=1.57u as=0p ps=0u w=0u l=0u
X29 a_599_989.t2 a_277_1050.t9 VDD.t45 ð«ñÛ@ sky130_fd_pr__pfet_01v8 ad=0p pd=0u as=0p ps=0u w=2u l=0.15u
X30 VDD.t7 RN.t5 QN.t1  ¬ñÛ@ sky130_fd_pr__pfet_01v8 ad=0p pd=0u as=0p ps=0u w=2u l=0.15u
X31 a_277_1050.t5 a_599_989.t11 VDD.t55 ð«ñÛ@ sky130_fd_pr__pfet_01v8 ad=0p pd=0u as=0p ps=0u w=2u l=0.15u
X32 a_2201_1050.t5 a_277_1050.t10 VDD.t13  ¬ñÛ@ sky130_fd_pr__pfet_01v8 ad=0p pd=0u as=0p ps=0u w=2u l=0.15u
X33 GND a_2201_1050.t8 a_2977_103.t0 GND sky130_fd_pr__nfet_01v8 ad=0p pd=0u as=0p ps=0u w=0u l=0u
X34 a_2201_1050.t2 a_1561_989.t12 VDD.t43 ð«ñÛ@ sky130_fd_pr__pfet_01v8 ad=0p pd=0u as=0p ps=0u w=2u l=0.15u
X35 VDD.t51 a_599_989.t12 QN.t5  ¬ñÛ@ sky130_fd_pr__pfet_01v8 ad=0p pd=0u as=0p ps=0u w=2u l=0.15u
X36 VDD.t33 Q.t9 QN.t0 ð«ñÛ@ sky130_fd_pr__pfet_01v8 ad=0p pd=0u as=0p ps=0u w=2u l=0.15u
X37 Q.t0 QN.t9 VDD.t3  ¬ñÛ@ sky130_fd_pr__pfet_01v8 ad=0p pd=0u as=0p ps=0u w=2u l=0.15u
X38 GND a_277_1050.t12 a_1053_103.t0 GND sky130_fd_pr__nfet_01v8 ad=0p pd=0u as=0p ps=0u w=0u l=0u
X39 Q.t3 a_1561_989.t14 VDD.t57 ð«ñÛ@ sky130_fd_pr__pfet_01v8 ad=0p pd=0u as=0p ps=0u w=2u l=0.15u
X40 GND a_599_989.t7 a_3939_103.t0 GND sky130_fd_pr__nfet_01v8 ad=0p pd=0u as=0p ps=0u w=0u l=0u
X41 VDD.t29 a_2201_1050.t9 a_1561_989.t1  ¬ñÛ@ sky130_fd_pr__pfet_01v8 ad=0p pd=0u as=0p ps=0u w=2u l=0.15u
X42 Q.t5 SN.t4 VDD.t9 ð«ñÛ@ sky130_fd_pr__pfet_01v8 ad=0p pd=0u as=0p ps=0u w=2u l=0.15u
X43 VDD.t49 D.t2 a_277_1050.t3  ¬ñÛ@ sky130_fd_pr__pfet_01v8 ad=0p pd=0u as=0p ps=0u w=2u l=0.15u
C0 QN VDD 2.84fF
C1 CLK VDD 0.59fF
C2 SN QN 0.42fF
C3 RN QN 0.12fF
C4 SN CLK 0.48fF
C5 RN CLK 0.73fF
C6 Q VDD 2.79fF
C7 SN Q 0.39fF
C8 RN Q 0.18fF
C9 SN VDD 0.59fF
C10 RN VDD 4.40fF
C11 D VDD 0.35fF
C12 RN SN 0.37fF
C13 RN D 0.18fF
C14 Q QN 0.85fF
R0 CLK.n2 CLK.t5 479.223
R1 CLK.n0 CLK.t1 479.223
R2 CLK.n2 CLK.t0 375.52
R3 CLK.n0 CLK.t4 375.52
R4 CLK.n3 CLK.t2 287.572
R5 CLK.n1 CLK.t3 287.572
R6 CLK.n3 CLK.n2 196.47
R7 CLK.n1 CLK.n0 196.47
R8 CLK.n4 CLK.n1 11.678
R9 CLK.n4 CLK.n3 4.65
R10 CLK.n4 CLK 0.046
R11 VDD.n336 VDD.n325 144.705
R12 VDD.n466 VDD.n459 144.705
R13 VDD.n411 VDD.n404 144.705
R14 VDD.n172 VDD.n165 144.705
R15 VDD.n97 VDD.n86 144.705
R16 VDD.n302 VDD.t15 143.754
R17 VDD.n378 VDD.t17 143.754
R18 VDD.n453 VDD.t19 143.754
R19 VDD.n181 VDD.t53 143.754
R20 VDD.n106 VDD.t33 143.754
R21 VDD.n30 VDD.t25 143.754
R22 VDD.n267 VDD.t11 135.17
R23 VDD.n343 VDD.t45 135.17
R24 VDD.n418 VDD.t13 135.17
R25 VDD.n211 VDD.t21 135.17
R26 VDD.n136 VDD.t23 135.17
R27 VDD.n60 VDD.t3 135.17
R28 VDD.n277 VDD.n276 129.472
R29 VDD.n293 VDD.n292 129.472
R30 VDD.n353 VDD.n352 129.472
R31 VDD.n369 VDD.n368 129.472
R32 VDD.n428 VDD.n427 129.472
R33 VDD.n444 VDD.n443 129.472
R34 VDD.n202 VDD.n201 129.472
R35 VDD.n190 VDD.n189 129.472
R36 VDD.n127 VDD.n126 129.472
R37 VDD.n115 VDD.n114 129.472
R38 VDD.n51 VDD.n50 129.472
R39 VDD.n39 VDD.n38 129.472
R40 VDD.n82 VDD.n81 92.5
R41 VDD.n80 VDD.n79 92.5
R42 VDD.n78 VDD.n77 92.5
R43 VDD.n76 VDD.n75 92.5
R44 VDD.n84 VDD.n83 92.5
R45 VDD.n161 VDD.n160 92.5
R46 VDD.n159 VDD.n158 92.5
R47 VDD.n157 VDD.n156 92.5
R48 VDD.n155 VDD.n154 92.5
R49 VDD.n163 VDD.n162 92.5
R50 VDD.n232 VDD.n231 92.5
R51 VDD.n230 VDD.n229 92.5
R52 VDD.n228 VDD.n227 92.5
R53 VDD.n226 VDD.n225 92.5
R54 VDD.n234 VDD.n233 92.5
R55 VDD.n400 VDD.n399 92.5
R56 VDD.n398 VDD.n397 92.5
R57 VDD.n396 VDD.n395 92.5
R58 VDD.n394 VDD.n393 92.5
R59 VDD.n402 VDD.n401 92.5
R60 VDD.n321 VDD.n320 92.5
R61 VDD.n319 VDD.n318 92.5
R62 VDD.n317 VDD.n316 92.5
R63 VDD.n315 VDD.n314 92.5
R64 VDD.n323 VDD.n322 92.5
R65 VDD.n251 VDD.n250 92.5
R66 VDD.n249 VDD.n248 92.5
R67 VDD.n247 VDD.n246 92.5
R68 VDD.n245 VDD.n244 92.5
R69 VDD.n253 VDD.n252 92.5
R70 VDD.n14 VDD.n1 92.5
R71 VDD.n5 VDD.n4 92.5
R72 VDD.n7 VDD.n6 92.5
R73 VDD.n9 VDD.n8 92.5
R74 VDD.n11 VDD.n10 92.5
R75 VDD.n13 VDD.n12 92.5
R76 VDD.n21 VDD.n20 92.059
R77 VDD.n96 VDD.n95 92.059
R78 VDD.n171 VDD.n170 92.059
R79 VDD.n465 VDD.n464 92.059
R80 VDD.n410 VDD.n409 92.059
R81 VDD.n335 VDD.n334 92.059
R82 VDD.n259 VDD.n258 92.059
R83 VDD.n20 VDD.n16 67.194
R84 VDD.n20 VDD.n17 67.194
R85 VDD.n20 VDD.n18 67.194
R86 VDD.n20 VDD.n19 67.194
R87 VDD.n243 VDD.n242 44.141
R88 VDD.n392 VDD.n391 44.141
R89 VDD.n224 VDD.n223 44.141
R90 VDD.n153 VDD.n152 44.141
R91 VDD.n5 VDD.n3 44.141
R92 VDD.n391 VDD.n389 44.107
R93 VDD.n223 VDD.n221 44.107
R94 VDD.n152 VDD.n150 44.107
R95 VDD.n242 VDD.n240 44.107
R96 VDD.n3 VDD.n2 44.107
R97 VDD.n20 VDD.n15 41.052
R98 VDD.n90 VDD.n88 39.742
R99 VDD.n90 VDD.n89 39.742
R100 VDD.n92 VDD.n91 39.742
R101 VDD.n167 VDD.n166 39.742
R102 VDD.n461 VDD.n460 39.742
R103 VDD.n406 VDD.n405 39.742
R104 VDD.n255 VDD.n254 39.742
R105 VDD.n333 VDD.n330 39.742
R106 VDD.n333 VDD.n332 39.742
R107 VDD.n329 VDD.n328 39.742
R108 VDD.n152 VDD.n151 38
R109 VDD.n223 VDD.n222 38
R110 VDD.n391 VDD.n390 38
R111 VDD.n242 VDD.n241 38
R112 VDD.n389 VDD.n388 36.774
R113 VDD.n221 VDD.n220 36.774
R114 VDD.n150 VDD.n149 36.774
R115 VDD.n88 VDD.n87 36.774
R116 VDD.n332 VDD.n331 36.774
R117 VDD.n32  ¬ñÛ@ 35.8
R118 VDD.n108 ð«ñÛ@ 35.8
R119 VDD.n183  ¬ñÛ@ 35.8
R120 VDD.n447  ¬ñÛ@ 35.8
R121 VDD.n372  ¬ñÛ@ 35.8
R122 VDD.n296 ð«ñÛ@ 35.8
R123 VDD.n56  ¬ñÛ@ 33.243
R124 VDD.n132 ð«ñÛ@ 33.243
R125 VDD.n207 ð«ñÛ@ 33.243
R126 VDD.n423  ¬ñÛ@ 33.243
R127 VDD.n348 ð«ñÛ@ 33.243
R128 VDD.n272  ¬ñÛ@ 33.243
R129 VDD.n1 VDD.n0 30.923
R130 VDD.n95 VDD.n93 26.38
R131 VDD.n95 VDD.n92 26.38
R132 VDD.n95 VDD.n90 26.38
R133 VDD.n95 VDD.n94 26.38
R134 VDD.n170 VDD.n168 26.38
R135 VDD.n170 VDD.n167 26.38
R136 VDD.n170 VDD.n169 26.38
R137 VDD.n464 VDD.n462 26.38
R138 VDD.n464 VDD.n461 26.38
R139 VDD.n464 VDD.n463 26.38
R140 VDD.n409 VDD.n407 26.38
R141 VDD.n409 VDD.n406 26.38
R142 VDD.n409 VDD.n408 26.38
R143 VDD.n258 VDD.n256 26.38
R144 VDD.n258 VDD.n255 26.38
R145 VDD.n258 VDD.n257 26.38
R146 VDD.n334 VDD.n333 26.38
R147 VDD.n334 VDD.n329 26.38
R148 VDD.n334 VDD.n327 26.38
R149 VDD.n334 VDD.n326 26.38
R150 VDD.n261 VDD.n253 22.915
R151 VDD.n23 VDD.n14 22.915
R152 VDD.n36 ð«ñÛ@ 15.343
R153 VDD.n112  ¬ñÛ@ 15.343
R154 VDD.n187 ð«ñÛ@ 15.343
R155 VDD.n441 ð«ñÛ@ 15.343
R156 VDD.n366 ð«ñÛ@ 15.343
R157 VDD.n290 ð«ñÛ@ 15.343
R158 VDD.n253 VDD.n251 14.864
R159 VDD.n251 VDD.n249 14.864
R160 VDD.n249 VDD.n247 14.864
R161 VDD.n247 VDD.n245 14.864
R162 VDD.n245 VDD.n243 14.864
R163 VDD.n402 VDD.n400 14.864
R164 VDD.n400 VDD.n398 14.864
R165 VDD.n398 VDD.n396 14.864
R166 VDD.n396 VDD.n394 14.864
R167 VDD.n394 VDD.n392 14.864
R168 VDD.n234 VDD.n232 14.864
R169 VDD.n232 VDD.n230 14.864
R170 VDD.n230 VDD.n228 14.864
R171 VDD.n228 VDD.n226 14.864
R172 VDD.n226 VDD.n224 14.864
R173 VDD.n163 VDD.n161 14.864
R174 VDD.n161 VDD.n159 14.864
R175 VDD.n159 VDD.n157 14.864
R176 VDD.n157 VDD.n155 14.864
R177 VDD.n155 VDD.n153 14.864
R178 VDD.n84 VDD.n82 14.864
R179 VDD.n82 VDD.n80 14.864
R180 VDD.n80 VDD.n78 14.864
R181 VDD.n78 VDD.n76 14.864
R182 VDD.n76 VDD.n74 14.864
R183 VDD.n74 VDD.n73 14.864
R184 VDD.n323 VDD.n321 14.864
R185 VDD.n321 VDD.n319 14.864
R186 VDD.n319 VDD.n317 14.864
R187 VDD.n317 VDD.n315 14.864
R188 VDD.n315 VDD.n313 14.864
R189 VDD.n313 VDD.n312 14.864
R190 VDD.n14 VDD.n13 14.864
R191 VDD.n13 VDD.n11 14.864
R192 VDD.n11 VDD.n9 14.864
R193 VDD.n9 VDD.n7 14.864
R194 VDD.n7 VDD.n5 14.864
R195 VDD.n98 VDD.n85 14.864
R196 VDD.n173 VDD.n164 14.864
R197 VDD.n238 VDD.n235 14.864
R198 VDD.n412 VDD.n403 14.864
R199 VDD.n337 VDD.n324 14.864
R200 VDD.n276 VDD.t1 14.282
R201 VDD.n276 VDD.t49 14.282
R202 VDD.n292 VDD.t55 14.282
R203 VDD.n292 VDD.t35 14.282
R204 VDD.n352 VDD.t69 14.282
R205 VDD.n352 VDD.t61 14.282
R206 VDD.n368 VDD.t71 14.282
R207 VDD.n368 VDD.t63 14.282
R208 VDD.n427 VDD.t5 14.282
R209 VDD.n427 VDD.t47 14.282
R210 VDD.n443 VDD.t43 14.282
R211 VDD.n443 VDD.t59 14.282
R212 VDD.n201 VDD.t65 14.282
R213 VDD.n201 VDD.t29 14.282
R214 VDD.n189 VDD.t31 14.282
R215 VDD.n189 VDD.t67 14.282
R216 VDD.n126 VDD.t27 14.282
R217 VDD.n126 VDD.t51 14.282
R218 VDD.n114 VDD.t37 14.282
R219 VDD.n114 VDD.t7 14.282
R220 VDD.n50 VDD.t9 14.282
R221 VDD.n50 VDD.t41 14.282
R222 VDD.n38 VDD.t57 14.282
R223 VDD.n38 VDD.t39 14.282
R224 VDD.n52 ð«ñÛ@ 12.786
R225 VDD.n128  ¬ñÛ@ 12.786
R226 VDD.n203  ¬ñÛ@ 12.786
R227 VDD.n429 VDD.t46 12.786
R228 VDD.n354 ð«ñÛ@ 12.786
R229 VDD.n278  ¬ñÛ@ 12.786
R230 VDD.n23 VDD.n22 8.855
R231 VDD.n22 VDD.n21 8.855
R232 VDD.n26 VDD.n25 8.855
R233 VDD.n25 VDD.n24 8.855
R234 VDD.n30 VDD.n29 8.855
R235 VDD.n29 VDD.n28 8.855
R236 VDD.n34 VDD.n33 8.855
R237 VDD.n33 VDD.n32 8.855
R238 VDD.n40 VDD.n37 8.855
R239 VDD.n37 VDD.n36 8.855
R240 VDD.n44 VDD.n43 8.855
R241 VDD.n43 VDD.n42 8.855
R242 VDD.n48 VDD.n47 8.855
R243 VDD.n47 VDD.n46 8.855
R244 VDD.n54 VDD.n53 8.855
R245 VDD.n53 VDD.n52 8.855
R246 VDD.n58 VDD.n57 8.855
R247 VDD.n57 VDD.n56 8.855
R248 VDD.n63 VDD.n62 8.855
R249 VDD.n62 VDD.n61 8.855
R250 VDD.n67 VDD.n66 8.855
R251 VDD.n66 VDD.n65 8.855
R252 VDD.n71 VDD.n70 8.855
R253 VDD.n70 VDD.n69 8.855
R254 VDD.n98 VDD.n97 8.855
R255 VDD.n97 VDD.n96 8.855
R256 VDD.n102 VDD.n101 8.855
R257 VDD.n101 VDD.n100 8.855
R258 VDD.n106 VDD.n105 8.855
R259 VDD.n105 VDD.n104 8.855
R260 VDD.n110 VDD.n109 8.855
R261 VDD.n109 VDD.n108 8.855
R262 VDD.n116 VDD.n113 8.855
R263 VDD.n113 VDD.n112 8.855
R264 VDD.n120 VDD.n119 8.855
R265 VDD.n119 VDD.n118 8.855
R266 VDD.n124 VDD.n123 8.855
R267 VDD.n123 VDD.n122 8.855
R268 VDD.n130 VDD.n129 8.855
R269 VDD.n129 VDD.n128 8.855
R270 VDD.n134 VDD.n133 8.855
R271 VDD.n133 VDD.n132 8.855
R272 VDD.n139 VDD.n138 8.855
R273 VDD.n138 VDD.n137 8.855
R274 VDD.n143 VDD.n142 8.855
R275 VDD.n142 VDD.n141 8.855
R276 VDD.n147 VDD.n146 8.855
R277 VDD.n146 VDD.n145 8.855
R278 VDD.n173 VDD.n172 8.855
R279 VDD.n172 VDD.n171 8.855
R280 VDD.n177 VDD.n176 8.855
R281 VDD.n176 VDD.n175 8.855
R282 VDD.n181 VDD.n180 8.855
R283 VDD.n180 VDD.n179 8.855
R284 VDD.n185 VDD.n184 8.855
R285 VDD.n184 VDD.n183 8.855
R286 VDD.n191 VDD.n188 8.855
R287 VDD.n188 VDD.n187 8.855
R288 VDD.n195 VDD.n194 8.855
R289 VDD.n194 VDD.n193 8.855
R290 VDD.n199 VDD.n198 8.855
R291 VDD.n198 VDD.n197 8.855
R292 VDD.n205 VDD.n204 8.855
R293 VDD.n204 VDD.n203 8.855
R294 VDD.n209 VDD.n208 8.855
R295 VDD.n208 VDD.n207 8.855
R296 VDD.n214 VDD.n213 8.855
R297 VDD.n213 VDD.n212 8.855
R298 VDD.n218 VDD.n217 8.855
R299 VDD.n217 VDD.n216 8.855
R300 VDD.n238 VDD.n237 8.855
R301 VDD.n237 VDD.n236 8.855
R302 VDD.n467 VDD.n466 8.855
R303 VDD.n466 VDD.n465 8.855
R304 VDD.n457 VDD.n456 8.855
R305 VDD.n456 VDD.n455 8.855
R306 VDD.n453 VDD.n452 8.855
R307 VDD.n452 VDD.n451 8.855
R308 VDD.n449 VDD.n448 8.855
R309 VDD.n448 VDD.n447 8.855
R310 VDD.n445 VDD.n442 8.855
R311 VDD.n442 VDD.n441 8.855
R312 VDD.n439 VDD.n438 8.855
R313 VDD.n438 VDD.n437 8.855
R314 VDD.n435 VDD.n434 8.855
R315 VDD.n434 VDD.n433 8.855
R316 VDD.n431 VDD.n430 8.855
R317 VDD.n430 VDD.n429 8.855
R318 VDD.n425 VDD.n424 8.855
R319 VDD.n424 VDD.n423 8.855
R320 VDD.n421 VDD.n420 8.855
R321 VDD.n420 VDD.n419 8.855
R322 VDD.n416 VDD.n415 8.855
R323 VDD.n415 VDD.n414 8.855
R324 VDD.n412 VDD.n411 8.855
R325 VDD.n411 VDD.n410 8.855
R326 VDD.n386 VDD.n385 8.855
R327 VDD.n385 VDD.n384 8.855
R328 VDD.n382 VDD.n381 8.855
R329 VDD.n381 VDD.n380 8.855
R330 VDD.n378 VDD.n377 8.855
R331 VDD.n377 VDD.n376 8.855
R332 VDD.n374 VDD.n373 8.855
R333 VDD.n373 VDD.n372 8.855
R334 VDD.n370 VDD.n367 8.855
R335 VDD.n367 VDD.n366 8.855
R336 VDD.n364 VDD.n363 8.855
R337 VDD.n363 VDD.n362 8.855
R338 VDD.n360 VDD.n359 8.855
R339 VDD.n359 VDD.n358 8.855
R340 VDD.n356 VDD.n355 8.855
R341 VDD.n355 VDD.n354 8.855
R342 VDD.n350 VDD.n349 8.855
R343 VDD.n349 VDD.n348 8.855
R344 VDD.n346 VDD.n345 8.855
R345 VDD.n345 VDD.n344 8.855
R346 VDD.n341 VDD.n340 8.855
R347 VDD.n340 VDD.n339 8.855
R348 VDD.n337 VDD.n336 8.855
R349 VDD.n336 VDD.n335 8.855
R350 VDD.n310 VDD.n309 8.855
R351 VDD.n309 VDD.n308 8.855
R352 VDD.n306 VDD.n305 8.855
R353 VDD.n305 VDD.n304 8.855
R354 VDD.n302 VDD.n301 8.855
R355 VDD.n301 VDD.n300 8.855
R356 VDD.n298 VDD.n297 8.855
R357 VDD.n297 VDD.n296 8.855
R358 VDD.n294 VDD.n291 8.855
R359 VDD.n291 VDD.n290 8.855
R360 VDD.n288 VDD.n287 8.855
R361 VDD.n287 VDD.n286 8.855
R362 VDD.n284 VDD.n283 8.855
R363 VDD.n283 VDD.n282 8.855
R364 VDD.n280 VDD.n279 8.855
R365 VDD.n279 VDD.n278 8.855
R366 VDD.n274 VDD.n273 8.855
R367 VDD.n273 VDD.n272 8.855
R368 VDD.n270 VDD.n269 8.855
R369 VDD.n269 VDD.n268 8.855
R370 VDD.n265 VDD.n264 8.855
R371 VDD.n264 VDD.n263 8.855
R372 VDD.n261 VDD.n260 8.855
R373 VDD.n260 VDD.n259 8.855
R374 VDD.n403 VDD.n402 8.051
R375 VDD.n235 VDD.n234 8.051
R376 VDD.n164 VDD.n163 8.051
R377 VDD.n85 VDD.n84 8.051
R378 VDD.n324 VDD.n323 8.051
R379 VDD.n46 ð«ñÛ@ 7.671
R380 VDD.n122  ¬ñÛ@ 7.671
R381 VDD.n197 ð«ñÛ@ 7.671
R382 VDD.n433  ¬ñÛ@ 7.671
R383 VDD.n358 àæ²ÐÖU 7.671
R384 VDD.n282  ¬ñÛ@ 7.671
R385 VDD.n54 VDD.n51 7.019
R386 VDD.n130 VDD.n127 7.019
R387 VDD.n205 VDD.n202 7.019
R388 VDD.n431 VDD.n428 7.019
R389 VDD.n356 VDD.n353 7.019
R390 VDD.n280 VDD.n277 7.019
R391 VDD.n40 VDD.n39 6.606
R392 VDD.n116 VDD.n115 6.606
R393 VDD.n191 VDD.n190 6.606
R394 VDD.n445 VDD.n444 6.606
R395 VDD.n370 VDD.n369 6.606
R396 VDD.n294 VDD.n293 6.606
R397 VDD.n42 ð«ñÛ@ 5.114
R398 VDD.n118  ¬ñÛ@ 5.114
R399 VDD.n193  5.114
R400 VDD.n437  ¬ñÛ@ 5.114
R401 VDD.n362 ð«ñÛ@ 5.114
R402 VDD.n286  ¬ñÛ@ 5.114
R403 VDD.n31 VDD.n30 4.65
R404 VDD.n35 VDD.n34 4.65
R405 VDD.n41 VDD.n40 4.65
R406 VDD.n45 VDD.n44 4.65
R407 VDD.n49 VDD.n48 4.65
R408 VDD.n55 VDD.n54 4.65
R409 VDD.n59 VDD.n58 4.65
R410 VDD.n64 VDD.n63 4.65
R411 VDD.n68 VDD.n67 4.65
R412 VDD.n72 VDD.n71 4.65
R413 VDD.n99 VDD.n98 4.65
R414 VDD.n103 VDD.n102 4.65
R415 VDD.n107 VDD.n106 4.65
R416 VDD.n111 VDD.n110 4.65
R417 VDD.n117 VDD.n116 4.65
R418 VDD.n121 VDD.n120 4.65
R419 VDD.n125 VDD.n124 4.65
R420 VDD.n131 VDD.n130 4.65
R421 VDD.n135 VDD.n134 4.65
R422 VDD.n140 VDD.n139 4.65
R423 VDD.n144 VDD.n143 4.65
R424 VDD.n148 VDD.n147 4.65
R425 VDD.n174 VDD.n173 4.65
R426 VDD.n178 VDD.n177 4.65
R427 VDD.n182 VDD.n181 4.65
R428 VDD.n186 VDD.n185 4.65
R429 VDD.n192 VDD.n191 4.65
R430 VDD.n196 VDD.n195 4.65
R431 VDD.n200 VDD.n199 4.65
R432 VDD.n206 VDD.n205 4.65
R433 VDD.n210 VDD.n209 4.65
R434 VDD.n215 VDD.n214 4.65
R435 VDD.n219 VDD.n218 4.65
R436 VDD.n239 VDD.n238 4.65
R437 VDD.n468 VDD.n467 4.65
R438 VDD.n458 VDD.n457 4.65
R439 VDD.n454 VDD.n453 4.65
R440 VDD.n450 VDD.n449 4.65
R441 VDD.n446 VDD.n445 4.65
R442 VDD.n440 VDD.n439 4.65
R443 VDD.n436 VDD.n435 4.65
R444 VDD.n432 VDD.n431 4.65
R445 VDD.n426 VDD.n425 4.65
R446 VDD.n422 VDD.n421 4.65
R447 VDD.n417 VDD.n416 4.65
R448 VDD.n413 VDD.n412 4.65
R449 VDD.n387 VDD.n386 4.65
R450 VDD.n383 VDD.n382 4.65
R451 VDD.n379 VDD.n378 4.65
R452 VDD.n375 VDD.n374 4.65
R453 VDD.n371 VDD.n370 4.65
R454 VDD.n365 VDD.n364 4.65
R455 VDD.n361 VDD.n360 4.65
R456 VDD.n357 VDD.n356 4.65
R457 VDD.n351 VDD.n350 4.65
R458 VDD.n347 VDD.n346 4.65
R459 VDD.n342 VDD.n341 4.65
R460 VDD.n338 VDD.n337 4.65
R461 VDD.n311 VDD.n310 4.65
R462 VDD.n307 VDD.n306 4.65
R463 VDD.n303 VDD.n302 4.65
R464 VDD.n299 VDD.n298 4.65
R465 VDD.n295 VDD.n294 4.65
R466 VDD.n289 VDD.n288 4.65
R467 VDD.n285 VDD.n284 4.65
R468 VDD.n281 VDD.n280 4.65
R469 VDD.n275 VDD.n274 4.65
R470 VDD.n271 VDD.n270 4.65
R471 VDD.n266 VDD.n265 4.65
R472 VDD.n262 VDD.n261 4.65
R473 VDD.n27 VDD.n23 2.933
R474 VDD.n27 VDD.n26 2.844
R475 VDD.n31 VDD.n27 1.063
R476 VDD.n63 VDD.n60 0.412
R477 VDD.n139 VDD.n136 0.412
R478 VDD.n214 VDD.n211 0.412
R479 VDD.n421 VDD.n418 0.412
R480 VDD.n346 VDD.n343 0.412
R481 VDD.n270 VDD.n267 0.412
R482 VDD.n99 VDD.n72 0.29
R483 VDD.n174 VDD.n148 0.29
R484 VDD.n413 VDD.n387 0.29
R485 VDD.n338 VDD.n311 0.29
R486 VDD.n262 VDD 0.207
R487 VDD.n49 VDD.n45 0.197
R488 VDD.n125 VDD.n121 0.197
R489 VDD.n200 VDD.n196 0.197
R490 VDD.n440 VDD.n436 0.197
R491 VDD.n365 VDD.n361 0.197
R492 VDD.n289 VDD.n285 0.197
R493 VDD.n35 VDD.n31 0.145
R494 VDD.n41 VDD.n35 0.145
R495 VDD.n45 VDD.n41 0.145
R496 VDD.n55 VDD.n49 0.145
R497 VDD.n59 VDD.n55 0.145
R498 VDD.n64 VDD.n59 0.145
R499 VDD.n68 VDD.n64 0.145
R500 VDD.n72 VDD.n68 0.145
R501 VDD.n103 VDD.n99 0.145
R502 VDD.n107 VDD.n103 0.145
R503 VDD.n111 VDD.n107 0.145
R504 VDD.n117 VDD.n111 0.145
R505 VDD.n121 VDD.n117 0.145
R506 VDD.n131 VDD.n125 0.145
R507 VDD.n135 VDD.n131 0.145
R508 VDD.n140 VDD.n135 0.145
R509 VDD.n144 VDD.n140 0.145
R510 VDD.n148 VDD.n144 0.145
R511 VDD.n178 VDD.n174 0.145
R512 VDD.n182 VDD.n178 0.145
R513 VDD.n186 VDD.n182 0.145
R514 VDD.n192 VDD.n186 0.145
R515 VDD.n196 VDD.n192 0.145
R516 VDD.n206 VDD.n200 0.145
R517 VDD.n210 VDD.n206 0.145
R518 VDD.n215 VDD.n210 0.145
R519 VDD.n219 VDD.n215 0.145
R520 VDD.n239 VDD.n219 0.145
R521 VDD VDD.n239 0.145
R522 VDD VDD.n468 0.145
R523 VDD.n468 VDD.n458 0.145
R524 VDD.n458 VDD.n454 0.145
R525 VDD.n454 VDD.n450 0.145
R526 VDD.n450 VDD.n446 0.145
R527 VDD.n446 VDD.n440 0.145
R528 VDD.n436 VDD.n432 0.145
R529 VDD.n432 VDD.n426 0.145
R530 VDD.n426 VDD.n422 0.145
R531 VDD.n422 VDD.n417 0.145
R532 VDD.n417 VDD.n413 0.145
R533 VDD.n387 VDD.n383 0.145
R534 VDD.n383 VDD.n379 0.145
R535 VDD.n379 VDD.n375 0.145
R536 VDD.n375 VDD.n371 0.145
R537 VDD.n371 VDD.n365 0.145
R538 VDD.n361 VDD.n357 0.145
R539 VDD.n357 VDD.n351 0.145
R540 VDD.n351 VDD.n347 0.145
R541 VDD.n347 VDD.n342 0.145
R542 VDD.n342 VDD.n338 0.145
R543 VDD.n311 VDD.n307 0.145
R544 VDD.n307 VDD.n303 0.145
R545 VDD.n303 VDD.n299 0.145
R546 VDD.n299 VDD.n295 0.145
R547 VDD.n295 VDD.n289 0.145
R548 VDD.n285 VDD.n281 0.145
R549 VDD.n281 VDD.n275 0.145
R550 VDD.n275 VDD.n271 0.145
R551 VDD.n271 VDD.n266 0.145
R552 VDD.n266 VDD.n262 0.145
R553 a_599_989.n1 a_599_989.t12 512.525
R554 a_599_989.n3 a_599_989.t11 454.685
R555 a_599_989.n3 a_599_989.t9 428.979
R556 a_599_989.n1 a_599_989.t8 371.139
R557 a_599_989.n2 a_599_989.t7 361.392
R558 a_599_989.n7 a_599_989.n6 329.955
R559 a_599_989.n4 a_599_989.t10 311.683
R560 a_599_989.n2 a_599_989.n1 235.554
R561 a_599_989.n8 a_599_989.n7 179.199
R562 a_599_989.n4 a_599_989.n3 171.288
R563 a_599_989.n10 a_599_989.n9 161.352
R564 a_599_989.n8 a_599_989.n0 95.095
R565 a_599_989.n11 a_599_989.n10 95.094
R566 a_599_989.n10 a_599_989.n8 66.258
R567 a_599_989.n0 a_599_989.t0 14.282
R568 a_599_989.n0 a_599_989.t6 14.282
R569 a_599_989.n9 a_599_989.t3 14.282
R570 a_599_989.n9 a_599_989.t2 14.282
R571 a_599_989.n11 a_599_989.t4 14.282
R572 a_599_989.t5 a_599_989.n11 14.282
R573 a_599_989.n5 a_599_989.n2 13.038
R574 a_599_989.n5 a_599_989.n4 8.685
R575 a_599_989.n7 a_599_989.n5 4.65
R576 a_3939_103.t0 a_3939_103.n0 117.777
R577 a_3939_103.n2 a_3939_103.n1 66.629
R578 a_3939_103.t0 a_3939_103.n8 59.616
R579 a_3939_103.n5 a_3939_103.n3 54.496
R580 a_3939_103.n5 a_3939_103.n4 54.496
R581 a_3939_103.t0 a_3939_103.n2 20.262
R582 a_3939_103.n7 a_3939_103.n6 2.455
R583 a_3939_103.n7 a_3939_103.n5 0.636
R584 a_3939_103.t0 a_3939_103.n7 0.246
R585 GND.n166 GND.n165 237.558
R586 GND.n250 GND.n249 237.558
R587 GND.n208 GND.n207 237.558
R588 GND.n87 GND.n86 237.558
R589 GND.n43 GND.n42 237.558
R590 GND.n40 GND.n39 210.82
R591 GND.n168 GND.n167 210.82
R592 GND.n210 GND.n209 210.82
R593 GND.n247 GND.n246 210.82
R594 GND.n84 GND.n83 210.82
R595 GND.n219 GND.n218 173.365
R596 GND.n177 GND.n176 173.365
R597 GND.n135 GND.n134 173.365
R598 GND.n74 GND.n73 167.358
R599 GND.n118 GND.n117 167.358
R600 GND.n30 GND.n29 152.358
R601 GND.n29 GND.n28 28.421
R602 GND.n29 GND.n27 25.263
R603 GND.n27 GND.n26 24.383
R604 GND.n73 GND.n71 23.03
R605 GND.n117 GND.n115 23.03
R606 GND.n41 GND.n40 18.953
R607 GND.n169 GND.n168 18.953
R608 GND.n211 GND.n210 18.953
R609 GND.n248 GND.n247 18.953
R610 GND.n85 GND.n84 18.953
R611 GND.n44 GND.n41 14.864
R612 GND.n88 GND.n85 14.864
R613 GND.n251 GND.n248 14.864
R614 GND.n212 GND.n211 14.864
R615 GND.n170 GND.n169 14.864
R616 GND.n131 GND.n130 9.154
R617 GND.n136 GND.n133 9.154
R618 GND.n139 GND.n138 9.154
R619 GND.n142 GND.n141 9.154
R620 GND.n145 GND.n144 9.154
R621 GND.n148 GND.n147 9.154
R622 GND.n151 GND.n150 9.154
R623 GND.n154 GND.n153 9.154
R624 GND.n157 GND.n156 9.154
R625 GND.n160 GND.n159 9.154
R626 GND.n163 GND.n162 9.154
R627 GND.n170 GND.n166 9.154
R628 GND.n173 GND.n172 9.154
R629 GND.n178 GND.n175 9.154
R630 GND.n181 GND.n180 9.154
R631 GND.n184 GND.n183 9.154
R632 GND.n187 GND.n186 9.154
R633 GND.n190 GND.n189 9.154
R634 GND.n193 GND.n192 9.154
R635 GND.n196 GND.n195 9.154
R636 GND.n199 GND.n198 9.154
R637 GND.n202 GND.n201 9.154
R638 GND.n205 GND.n204 9.154
R639 GND.n212 GND.n208 9.154
R640 GND.n215 GND.n214 9.154
R641 GND.n220 GND.n217 9.154
R642 GND.n223 GND.n222 9.154
R643 GND.n226 GND.n225 9.154
R644 GND.n229 GND.n228 9.154
R645 GND.n232 GND.n231 9.154
R646 GND.n235 GND.n234 9.154
R647 GND.n238 GND.n237 9.154
R648 GND.n241 GND.n240 9.154
R649 GND.n244 GND.n243 9.154
R650 GND.n251 GND.n250 9.154
R651 GND.n125 GND.n124 9.154
R652 GND.n122 GND.n121 9.154
R653 GND.n119 GND.n114 9.154
R654 GND.n112 GND.n111 9.154
R655 GND.n109 GND.n108 9.154
R656 GND.n106 GND.n105 9.154
R657 GND.n103 GND.n102 9.154
R658 GND.n100 GND.n99 9.154
R659 GND.n97 GND.n96 9.154
R660 GND.n94 GND.n93 9.154
R661 GND.n91 GND.n90 9.154
R662 GND.n88 GND.n87 9.154
R663 GND.n81 GND.n80 9.154
R664 GND.n78 GND.n77 9.154
R665 GND.n75 GND.n70 9.154
R666 GND.n68 GND.n67 9.154
R667 GND.n65 GND.n64 9.154
R668 GND.n62 GND.n61 9.154
R669 GND.n59 GND.n58 9.154
R670 GND.n56 GND.n55 9.154
R671 GND.n53 GND.n52 9.154
R672 GND.n50 GND.n49 9.154
R673 GND.n47 GND.n46 9.154
R674 GND.n44 GND.n43 9.154
R675 GND.n37 GND.n36 9.154
R676 GND.n34 GND.n33 9.154
R677 GND.n31 GND.n25 9.154
R678 GND.n23 GND.n22 9.154
R679 GND.n20 GND.n19 9.154
R680 GND.n17 GND.n16 9.154
R681 GND.n14 GND.n13 9.154
R682 GND.n11 GND.n10 9.154
R683 GND.n8 GND.n7 9.154
R684 GND.n5 GND.n4 9.154
R685 GND.n2 GND.n1 9.154
R686 GND.n73 GND.n72 8.128
R687 GND.n117 GND.n116 8.128
R688 GND.n129 GND.n128 4.65
R689 GND.n6 GND.n5 4.65
R690 GND.n9 GND.n8 4.65
R691 GND.n12 GND.n11 4.65
R692 GND.n15 GND.n14 4.65
R693 GND.n18 GND.n17 4.65
R694 GND.n21 GND.n20 4.65
R695 GND.n24 GND.n23 4.65
R696 GND.n32 GND.n31 4.65
R697 GND.n35 GND.n34 4.65
R698 GND.n38 GND.n37 4.65
R699 GND.n45 GND.n44 4.65
R700 GND.n48 GND.n47 4.65
R701 GND.n51 GND.n50 4.65
R702 GND.n54 GND.n53 4.65
R703 GND.n57 GND.n56 4.65
R704 GND.n60 GND.n59 4.65
R705 GND.n63 GND.n62 4.65
R706 GND.n66 GND.n65 4.65
R707 GND.n69 GND.n68 4.65
R708 GND.n76 GND.n75 4.65
R709 GND.n79 GND.n78 4.65
R710 GND.n82 GND.n81 4.65
R711 GND.n89 GND.n88 4.65
R712 GND.n92 GND.n91 4.65
R713 GND.n95 GND.n94 4.65
R714 GND.n98 GND.n97 4.65
R715 GND.n101 GND.n100 4.65
R716 GND.n104 GND.n103 4.65
R717 GND.n107 GND.n106 4.65
R718 GND.n110 GND.n109 4.65
R719 GND.n113 GND.n112 4.65
R720 GND.n120 GND.n119 4.65
R721 GND.n123 GND.n122 4.65
R722 GND.n126 GND.n125 4.65
R723 GND.n252 GND.n251 4.65
R724 GND.n245 GND.n244 4.65
R725 GND.n242 GND.n241 4.65
R726 GND.n239 GND.n238 4.65
R727 GND.n236 GND.n235 4.65
R728 GND.n233 GND.n232 4.65
R729 GND.n230 GND.n229 4.65
R730 GND.n227 GND.n226 4.65
R731 GND.n224 GND.n223 4.65
R732 GND.n221 GND.n220 4.65
R733 GND.n216 GND.n215 4.65
R734 GND.n213 GND.n212 4.65
R735 GND.n206 GND.n205 4.65
R736 GND.n203 GND.n202 4.65
R737 GND.n200 GND.n199 4.65
R738 GND.n197 GND.n196 4.65
R739 GND.n194 GND.n193 4.65
R740 GND.n191 GND.n190 4.65
R741 GND.n188 GND.n187 4.65
R742 GND.n185 GND.n184 4.65
R743 GND.n182 GND.n181 4.65
R744 GND.n179 GND.n178 4.65
R745 GND.n174 GND.n173 4.65
R746 GND.n171 GND.n170 4.65
R747 GND.n164 GND.n163 4.65
R748 GND.n161 GND.n160 4.65
R749 GND.n158 GND.n157 4.65
R750 GND.n155 GND.n154 4.65
R751 GND.n152 GND.n151 4.65
R752 GND.n149 GND.n148 4.65
R753 GND.n146 GND.n145 4.65
R754 GND.n143 GND.n142 4.65
R755 GND.n140 GND.n139 4.65
R756 GND.n137 GND.n136 4.65
R757 GND.n132 GND.n131 4.65
R758 GND.n3 GND.n0 3.407
R759 GND.n3 GND.n2 2.844
R760 GND.n6 GND.n3 1.063
R761 GND.n128 GND.n127 0.474
R762 GND.n45 GND.n38 0.29
R763 GND.n89 GND.n82 0.29
R764 GND.n213 GND.n206 0.29
R765 GND.n171 GND.n164 0.29
R766 GND.n129 GND 0.207
R767 GND.n31 GND.n30 0.206
R768 GND.n75 GND.n74 0.206
R769 GND.n119 GND.n118 0.206
R770 GND.n220 GND.n219 0.206
R771 GND.n178 GND.n177 0.206
R772 GND.n136 GND.n135 0.206
R773 GND.n18 GND.n15 0.197
R774 GND.n63 GND.n60 0.197
R775 GND.n107 GND.n104 0.197
R776 GND.n233 GND.n230 0.197
R777 GND.n191 GND.n188 0.197
R778 GND.n149 GND.n146 0.197
R779 GND.n9 GND.n6 0.145
R780 GND.n12 GND.n9 0.145
R781 GND.n15 GND.n12 0.145
R782 GND.n21 GND.n18 0.145
R783 GND.n24 GND.n21 0.145
R784 GND.n32 GND.n24 0.145
R785 GND.n35 GND.n32 0.145
R786 GND.n38 GND.n35 0.145
R787 GND.n48 GND.n45 0.145
R788 GND.n51 GND.n48 0.145
R789 GND.n54 GND.n51 0.145
R790 GND.n57 GND.n54 0.145
R791 GND.n60 GND.n57 0.145
R792 GND.n66 GND.n63 0.145
R793 GND.n69 GND.n66 0.145
R794 GND.n76 GND.n69 0.145
R795 GND.n79 GND.n76 0.145
R796 GND.n82 GND.n79 0.145
R797 GND.n92 GND.n89 0.145
R798 GND.n95 GND.n92 0.145
R799 GND.n98 GND.n95 0.145
R800 GND.n101 GND.n98 0.145
R801 GND.n104 GND.n101 0.145
R802 GND.n110 GND.n107 0.145
R803 GND.n113 GND.n110 0.145
R804 GND.n120 GND.n113 0.145
R805 GND.n123 GND.n120 0.145
R806 GND.n126 GND.n123 0.145
R807 GND GND.n126 0.145
R808 GND GND.n252 0.145
R809 GND.n252 GND.n245 0.145
R810 GND.n245 GND.n242 0.145
R811 GND.n242 GND.n239 0.145
R812 GND.n239 GND.n236 0.145
R813 GND.n236 GND.n233 0.145
R814 GND.n230 GND.n227 0.145
R815 GND.n227 GND.n224 0.145
R816 GND.n224 GND.n221 0.145
R817 GND.n221 GND.n216 0.145
R818 GND.n216 GND.n213 0.145
R819 GND.n206 GND.n203 0.145
R820 GND.n203 GND.n200 0.145
R821 GND.n200 GND.n197 0.145
R822 GND.n197 GND.n194 0.145
R823 GND.n194 GND.n191 0.145
R824 GND.n188 GND.n185 0.145
R825 GND.n185 GND.n182 0.145
R826 GND.n182 GND.n179 0.145
R827 GND.n179 GND.n174 0.145
R828 GND.n174 GND.n171 0.145
R829 GND.n164 GND.n161 0.145
R830 GND.n161 GND.n158 0.145
R831 GND.n158 GND.n155 0.145
R832 GND.n155 GND.n152 0.145
R833 GND.n152 GND.n149 0.145
R834 GND.n146 GND.n143 0.145
R835 GND.n143 GND.n140 0.145
R836 GND.n140 GND.n137 0.145
R837 GND.n137 GND.n132 0.145
R838 GND.n132 GND.n129 0.145
R839 a_277_1050.n2 a_277_1050.t8 512.525
R840 a_277_1050.n0 a_277_1050.t7 512.525
R841 a_277_1050.n2 a_277_1050.t9 371.139
R842 a_277_1050.n0 a_277_1050.t10 371.139
R843 a_277_1050.n3 a_277_1050.t12 306.051
R844 a_277_1050.n1 a_277_1050.t11 306.051
R845 a_277_1050.n3 a_277_1050.n2 290.895
R846 a_277_1050.n1 a_277_1050.n0 290.895
R847 a_277_1050.n9 a_277_1050.n8 252.875
R848 a_277_1050.n13 a_277_1050.n9 234.54
R849 a_277_1050.n12 a_277_1050.n11 161.352
R850 a_277_1050.n12 a_277_1050.n10 95.095
R851 a_277_1050.n14 a_277_1050.n13 95.094
R852 a_277_1050.n13 a_277_1050.n12 66.258
R853 a_277_1050.n8 a_277_1050.n7 30
R854 a_277_1050.n6 a_277_1050.n5 24.383
R855 a_277_1050.n8 a_277_1050.n6 23.684
R856 a_277_1050.n10 a_277_1050.t2 14.282
R857 a_277_1050.n10 a_277_1050.t0 14.282
R858 a_277_1050.n11 a_277_1050.t3 14.282
R859 a_277_1050.n11 a_277_1050.t1 14.282
R860 a_277_1050.t6 a_277_1050.n14 14.282
R861 a_277_1050.n14 a_277_1050.t5 14.282
R862 a_277_1050.n4 a_277_1050.n1 8.141
R863 a_277_1050.n9 a_277_1050.n4 5.965
R864 a_277_1050.n4 a_277_1050.n3 4.65
R865 a_2201_1050.n2 a_2201_1050.t9 512.525
R866 a_2201_1050.n2 a_2201_1050.t7 371.139
R867 a_2201_1050.n3 a_2201_1050.t8 305.674
R868 a_2201_1050.n3 a_2201_1050.n2 291.272
R869 a_2201_1050.n5 a_2201_1050.n4 274.237
R870 a_2201_1050.n6 a_2201_1050.n5 234.917