* SPICE3 file created from DFFX1.ext - technology: sky130A

.subckt DFFX1 Q QN D CLK VDD GND
X0 Q a_147_187.t5 a_3738_101.t0 GND sky130_fd_pr__nfet_01v8 ad=1.791p pd=1.57u as=0p ps=0u w=0u l=0u
X1 VDD.t41 a_1845_1050.t5 a_147_187.t3 >∏ôV sky130_fd_pr__pfet_01v8 ad=0p pd=0u as=0p ps=0u w=2u l=0.15u
X2 QN.t2 a_277_1050.t7 VDD.t17 p;∏ôV sky130_fd_pr__pfet_01v8 ad=0p pd=0u as=0p ps=0u w=2u l=0.15u
X3 VDD.t13 CLK.t0 a_277_1050.t0 Ä¥côV sky130_fd_pr__pfet_01v8 ad=0p pd=0u as=0p ps=0u w=2u l=0.15u
X4 QN.t4 Q.t5 VDD.t45 0™ËòV sky130_fd_pr__pfet_01v8 ad=0p pd=0u as=0p ps=0u w=2u l=0.15u
X5 GND a_1845_1050.t6 a_2406_101.t0 GND sky130_fd_pr__nfet_01v8 ad=1.0746p pd=9.42u as=0p ps=0u w=0u l=0u
X6 VDD.t15 CLK.t1 a_147_187.t2  sky130_fd_pr__pfet_01v8 ad=0p pd=0u as=0p ps=0u w=2u l=0.15u
X7 VDD.t49 a_599_989.t5 a_277_1050.t4 VDD.t48 sky130_fd_pr__pfet_01v8 ad=0p pd=0u as=0p ps=0u w=2u l=0.15u
X8 Q.t4 QN.t5 VDD.t37 l€∞T sky130_fd_pr__pfet_01v8 ad=0p pd=0u as=0p ps=0u w=2u l=0.15u
X9 QN Q.t6 a_3072_101.t1 GND sky130_fd_pr__nfet_01v8 ad=1.791p pd=1.57u as=0p ps=0u w=0u l=0u
X10 VDD.t9 a_277_1050.t9 a_599_989.t3  l€∞T sky130_fd_pr__pfet_01v8 ad=0p pd=0u as=0p ps=0u w=2u l=0.15u
X11 VDD.t29 a_147_187.t6 Q.t1 VDD.t28 sky130_fd_pr__pfet_01v8 ad=0p pd=0u as=0p ps=0u w=2u l=0.15u
X12 a_1845_1050.t1 a_147_187.t7 VDD.t27  l€∞T sky130_fd_pr__pfet_01v8 ad=0p pd=0u as=0p ps=0u w=2u l=0.15u
X13 GND a_147_187.t10 a_91_103.t0 GND sky130_fd_pr__nfet_01v8 ad=0p pd=0u as=0p ps=0u w=0u l=0u
X14 Q.t0 a_147_187.t8 VDD.t25 VDD.t24 sky130_fd_pr__pfet_01v8 ad=0p pd=0u as=0p ps=0u w=2u l=0.15u
X15 VDD.t35 D.t1 a_599_989.t4  l€∞T sky130_fd_pr__pfet_01v8 ad=0p pd=0u as=0p ps=0u w=2u l=0.15u
X16 a_277_1050.t2 a_147_187.t9 VDD.t23 k€∞T sky130_fd_pr__pfet_01v8 ad=0p pd=0u as=0p ps=0u w=2u l=0.15u
X17 GND a_599_989.t8 a_1740_101.t0 GND sky130_fd_pr__nfet_01v8 ad=0p pd=0u as=0p ps=0u w=0u l=0u
X18 VDD.t47 a_599_989.t7 a_1845_1050.t3  l€∞T sky130_fd_pr__pfet_01v8 ad=0p pd=0u as=0p ps=0u w=2u l=0.15u
X19 a_277_1050.t3 CLK.t2 VDD.t31 k€∞T sky130_fd_pr__pfet_01v8 ad=0p pd=0u as=0p ps=0u w=2u l=0.15u
X20 a_147_187.t0 CLK.t3 VDD.t11  l€∞T sky130_fd_pr__pfet_01v8 ad=0p pd=0u as=0p ps=0u w=2u l=0.15u
X21 VDD.t1 a_277_1050.t10 QN.t1 k€∞T sky130_fd_pr__pfet_01v8 ad=0p pd=0u as=0p ps=0u w=2u l=0.15u
X22 GND QN.t6 a_3738_101.t0 GND sky130_fd_pr__nfet_01v8 ad=0p pd=0u as=0p ps=0u w=0u l=0u
X23 a_277_1050.t6 a_599_989.t9 VDD.t51  l€∞T sky130_fd_pr__pfet_01v8 ad=0p pd=0u as=0p ps=0u w=2u l=0.15u
X24 a_599_989.t2 a_277_1050.t11 VDD.t3 k€∞T sky130_fd_pr__pfet_01v8 ad=0p pd=0u as=0p ps=0u w=2u l=0.15u
X25 a_147_187.t4 a_1845_1050.t7 VDD.t39  l€∞T sky130_fd_pr__pfet_01v8 ad=0p pd=0u as=0p ps=0u w=2u l=0.15u
X26 GND a_277_1050.t12 a_1074_101.t0 GND sky130_fd_pr__nfet_01v8 ad=0p pd=0u as=0p ps=0u w=0u l=0u
X27 VDD.t33 Q.t7 QN.t0 k€∞T sky130_fd_pr__pfet_01v8 ad=0p pd=0u as=0p ps=0u w=2u l=0.15u
X28 VDD.t5 QN.t7 Q.t3  l€∞T sky130_fd_pr__pfet_01v8 ad=0p pd=0u as=0p ps=0u w=2u l=0.15u
X29 a_599_989.t0 D.t2 VDD.t7 k€∞T sky130_fd_pr__pfet_01v8 ad=0p pd=0u as=0p ps=0u w=2u l=0.15u
X30 GND a_277_1050.t8 a_3072_101.t0 GND sky130_fd_pr__nfet_01v8 ad=0p pd=0u as=0p ps=0u w=0u l=0u
X31 a_1845_1050.t2 a_599_989.t10 VDD.t43  l€∞T sky130_fd_pr__pfet_01v8 ad=0p pd=0u as=0p ps=0u w=2u l=0.15u
X32 VDD.t21 a_147_187.t11 a_1845_1050.t0 k€∞T sky130_fd_pr__pfet_01v8 ad=0p pd=0u as=0p ps=0u w=2u l=0.15u
X33 VDD.t19 a_147_187.t13 a_277_1050.t1  l€∞T sky130_fd_pr__pfet_01v8 ad=0p pd=0u as=0p ps=0u w=2u l=0.15u
C0 VDD D 0.32fF
C1 VDD Q 2.20fF
C2 CLK D 0.07fF
C3 VDD QN 2.20fF
C4 Q QN 0.94fF
C5 VDD CLK 1.85fF
R0 a_1845_1050.n3 a_1845_1050.t5 480.392
R1 a_1845_1050.n3 a_1845_1050.t7 403.272
R2 a_1845_1050.n4 a_1845_1050.t6 357.204
R3 a_1845_1050.n7 a_1845_1050.n5 312.103
R4 a_1845_1050.n4 a_1845_1050.n3 171.288
R5 a_1845_1050.n5 a_1845_1050.n2 159.999
R6 a_1845_1050.n2 a_1845_1050.n1 157.964
R7 a_1845_1050.n2 a_1845_1050.n0 91.706
R8 a_1845_1050.n7 a_1845_1050.n6 15.218
R9 a_1845_1050.n0 a_1845_1050.t0 14.282
R10 a_1845_1050.n0 a_1845_1050.t1 14.282
R11 a_1845_1050.n1 a_1845_1050.t3 14.282
R12 a_1845_1050.n1 a_1845_1050.t2 14.282
R13 a_1845_1050.n8 a_1845_1050.n7 12.014
R14 a_1845_1050.n5 a_1845_1050.n4 10.615
R15 a_147_187.n7 a_147_187.t13 512.525
R16 a_147_187.n5 a_147_187.t11 472.359
R17 a_147_187.n3 a_147_187.t6 472.359
R18 a_147_187.n8 a_147_187.t10 417.109
R19 a_147_187.n5 a_147_187.t7 384.527
R20 a_147_187.n3 a_147_187.t8 384.527
R21 a_147_187.n7 a_147_187.t9 371.139
R22 a_147_187.n6 a_147_187.t12 370.613
R23 a_147_187.n4 a_147_187.t5 370.613
R24 a_147_187.n13 a_147_187.n11 367.82
R25 a_147_187.n8 a_147_187.n7 179.837
R26 a_147_187.n2 a_147_187.n1 157.964
R27 a_147_187.n6 a_147_187.n5 127.096
R28 a_147_187.n4 a_147_187.n3 127.096
R29 a_147_187.n11 a_147_187.n2 104.282
R30 a_147_187.n2 a_147_187.n0 91.706
R31 a_147_187.n13 a_147_187.n12 15.218
R32 a_147_187.n0 a_147_187.t2 14.282
R33 a_147_187.n0 a_147_187.t0 14.282
R34 a_147_187.n1 a_147_187.t3 14.282
R35 a_147_187.n1 a_147_187.t4 14.282
R36 a_147_187.n14 a_147_187.n13 12.014
R37 a_147_187.n9 a_147_187.n8 11.134
R38 a_147_187.n10 a_147_187.n4 8.957
R39 a_147_187.n9 a_147_187.n6 4.65
R40 a_147_187.n11 a_147_187.n10 4.65
R41 a_147_187.n10 a_147_187.n9 2.947
R42 VDD.n297 VDD.n286 144.705
R43 VDD.n193 VDD.n186 144.705
R44 VDD.n354 VDD.n347 144.705
R45 VDD.n136 VDD.n129 144.705
R46 VDD.n79 VDD.n68 144.705
R47 VDD.n263 VDD.t49 143.754
R48 VDD.n322 VDD.t35 143.754
R49 VDD.n196 VDD.t21 143.754
R50 VDD.n139 VDD.t15 143.754
R51 VDD.n82 VDD.t33 143.754
R52 VDD.n24 VDD.t29 143.754
R53 VDD.n228 VDD.t23 135.17
R54 VDD.n300 VDD.t3 135.17
R55 VDD.n357 VDD.t43 135.17
R56 VDD.n161 VDD.t39 135.17
R57 VDD.n104 VDD.t17 135.17
R58 VDD.n46 VDD.t37 135.17
R59 VDD.n238 VDD.n237 129.472
R60 VDD.n254 VDD.n253 129.472
R61 VDD.n314 VDD.n313 129.472
R62 VDD.n371 VDD.n370 129.472
R63 VDD.n149 VDD.n148 129.472
R64 VDD.n92 VDD.n91 129.472
R65 VDD.n34 VDD.n33 129.472
R66 VDD.n64 VDD.n63 92.5
R67 VDD.n62 VDD.n61 92.5
R68 VDD.n60 VDD.n59 92.5
R69 VDD.n58 VDD.n57 92.5
R70 VDD.n66 VDD.n65 92.5
R71 VDD.n125 VDD.n124 92.5
R72 VDD.n123 VDD.n122 92.5
R73 VDD.n121 VDD.n120 92.5
R74 VDD.n119 VDD.n118 92.5
R75 VDD.n127 VDD.n126 92.5
R76 VDD.n182 VDD.n181 92.5
R77 VDD.n180 VDD.n179 92.5
R78 VDD.n178 VDD.n177 92.5
R79 VDD.n176 VDD.n175 92.5
R80 VDD.n184 VDD.n183 92.5
R81 VDD.n343 VDD.n342 92.5
R82 VDD.n341 VDD.n340 92.5
R83 VDD.n339 VDD.n338 92.5
R84 VDD.n337 VDD.n336 92.5
R85 VDD.n345 VDD.n344 92.5
R86 VDD.n282 VDD.n281 92.5
R87 VDD.n280 VDD.n279 92.5
R88 VDD.n278 VDD.n277 92.5
R89 VDD.n276 VDD.n275 92.5
R90 VDD.n284 VDD.n283 92.5
R91 VDD.n212 VDD.n211 92.5
R92 VDD.n210 VDD.n209 92.5
R93 VDD.n208 VDD.n207 92.5
R94 VDD.n206 VDD.n205 92.5
R95 VDD.n214 VDD.n213 92.5
R96 VDD.n14 VDD.n1 92.5
R97 VDD.n5 VDD.n4 92.5
R98 VDD.n7 VDD.n6 92.5
R99 VDD.n9 VDD.n8 92.5
R100 VDD.n11 VDD.n10 92.5
R101 VDD.n13 VDD.n12 92.5
R102 VDD.n21 VDD.n20 92.059
R103 VDD.n78 VDD.n77 92.059
R104 VDD.n135 VDD.n134 92.059
R105 VDD.n192 VDD.n191 92.059
R106 VDD.n353 VDD.n352 92.059
R107 VDD.n296 VDD.n295 92.059
R108 VDD.n220 VDD.n219 92.059
R109 VDD.n20 VDD.n16 67.194
R110 VDD.n20 VDD.n17 67.194
R111 VDD.n20 VDD.n18 67.194
R112 VDD.n20 VDD.n19 67.194
R113 VDD.n204 VDD.n203 44.141
R114 VDD.n335 VDD.n334 44.141
R115 VDD.n174 VDD.n173 44.141
R116 VDD.n117 VDD.n116 44.141
R117 VDD.n5 VDD.n3 44.141
R118 VDD.n334 VDD.n332 44.107
R119 VDD.n173 VDD.n171 44.107
R120 VDD.n116 VDD.n114 44.107
R121 VDD.n203 VDD.n201 44.107
R122 VDD.n3 VDD.n2 44.107
R123 VDD.n20 VDD.n15 41.052
R124 VDD.n72 VDD.n70 39.742
R125 VDD.n72 VDD.n71 39.742
R126 VDD.n74 VDD.n73 39.742
R127 VDD.n131 VDD.n130 39.742
R128 VDD.n188 VDD.n187 39.742
R129 VDD.n349 VDD.n348 39.742
R130 VDD.n216 VDD.n215 39.742
R131 VDD.n294 VDD.n291 39.742
R132 VDD.n294 VDD.n293 39.742
R133 VDD.n290 VDD.n289 39.742
R134 VDD.n116 VDD.n115 38
R135 VDD.n173 VDD.n172 38
R136 VDD.n334 VDD.n333 38
R137 VDD.n203 VDD.n202 38
R138 VDD.n332 VDD.n331 36.774
R139 VDD.n171 VDD.n170 36.774
R140 VDD.n114 VDD.n113 36.774
R141 VDD.n70 VDD.n69 36.774
R142 VDD.n293 VDD.n292 36.774
R143 VDD.n257 VDD.t48 35.8
R144 VDD.n233 k€∞T 33.243
R145 VDD.n1 VDD.n0 30.923
R146 VDD.n77 VDD.n75 26.38
R147 VDD.n77 VDD.n74 26.38
R148 VDD.n77 VDD.n72 26.38
R149 VDD.n77 VDD.n76 26.38
R150 VDD.n134 VDD.n132 26.38
R151 VDD.n134 VDD.n131 26.38
R152 VDD.n134 VDD.n133 26.38
R153 VDD.n191 VDD.n189 26.38
R154 VDD.n191 VDD.n188 26.38
R155 VDD.n191 VDD.n190 26.38
R156 VDD.n352 VDD.n350 26.38
R157 VDD.n352 VDD.n349 26.38
R158 VDD.n352 VDD.n351 26.38
R159 VDD.n219 VDD.n217 26.38
R160 VDD.n219 VDD.n216 26.38
R161 VDD.n219 VDD.n218 26.38
R162 VDD.n295 VDD.n294 26.38
R163 VDD.n295 VDD.n290 26.38
R164 VDD.n295 VDD.n288 26.38
R165 VDD.n295 VDD.n287 26.38
R166 VDD.n222 VDD.n214 22.915
R167 VDD.n23 VDD.n14 22.915
R168 VDD.n29 VDD.t28 20.457
R169 VDD.n87 k€∞T 20.457
R170 VDD.n144  20.457
R171 VDD.n375 k€∞T 20.457
R172 VDD.n318  l€∞T 20.457
R173 VDD.n42 l€∞T 17.9
R174 VDD.n100 p;∏ôV 17.9
R175 VDD.n157  l€∞T 17.9
R176 VDD.n362  l€∞T 17.9
R177 VDD.n305 k€∞T 17.9
R178 VDD.n251  l€∞T 15.343
R179 VDD.n214 VDD.n212 14.864
R180 VDD.n212 VDD.n210 14.864
R181 VDD.n210 VDD.n208 14.864
R182 VDD.n208 VDD.n206 14.864
R183 VDD.n206 VDD.n204 14.864
R184 VDD.n345 VDD.n343 14.864
R185 VDD.n343 VDD.n341 14.864
R186 VDD.n341 VDD.n339 14.864
R187 VDD.n339 VDD.n337 14.864
R188 VDD.n337 VDD.n335 14.864
R189 VDD.n184 VDD.n182 14.864
R190 VDD.n182 VDD.n180 14.864
R191 VDD.n180 VDD.n178 14.864
R192 VDD.n178 VDD.n176 14.864
R193 VDD.n176 VDD.n174 14.864
R194 VDD.n127 VDD.n125 14.864
R195 VDD.n125 VDD.n123 14.864
R196 VDD.n123 VDD.n121 14.864
R197 VDD.n121 VDD.n119 14.864
R198 VDD.n119 VDD.n117 14.864
R199 VDD.n66 VDD.n64 14.864
R200 VDD.n64 VDD.n62 14.864
R201 VDD.n62 VDD.n60 14.864
R202 VDD.n60 VDD.n58 14.864
R203 VDD.n58 VDD.n56 14.864
R204 VDD.n56 VDD.n55 14.864
R205 VDD.n284 VDD.n282 14.864
R206 VDD.n282 VDD.n280 14.864
R207 VDD.n280 VDD.n278 14.864
R208 VDD.n278 VDD.n276 14.864
R209 VDD.n276 VDD.n274 14.864
R210 VDD.n274 VDD.n273 14.864
R211 VDD.n14 VDD.n13 14.864
R212 VDD.n13 VDD.n11 14.864
R213 VDD.n11 VDD.n9 14.864
R214 VDD.n9 VDD.n7 14.864
R215 VDD.n7 VDD.n5 14.864
R216 VDD.n80 VDD.n67 14.864
R217 VDD.n137 VDD.n128 14.864
R218 VDD.n194 VDD.n185 14.864
R219 VDD.n355 VDD.n346 14.864
R220 VDD.n298 VDD.n285 14.864
R221 VDD.n237 VDD.t31 14.282
R222 VDD.n237 VDD.t19 14.282
R223 VDD.n253 VDD.t51 14.282
R224 VDD.n253 VDD.t13 14.282
R225 VDD.n313 VDD.t7 14.282
R226 VDD.n313 VDD.t9 14.282
R227 VDD.n370 VDD.t27 14.282
R228 VDD.n370 VDD.t47 14.282
R229 VDD.n148 VDD.t11 14.282
R230 VDD.n148 VDD.t41 14.282
R231 VDD.n91 VDD.t45 14.282
R232 VDD.n91 VDD.t1 14.282
R233 VDD.n33 VDD.t25 14.282
R234 VDD.n33 VDD.t5 14.282
R235 VDD.n239  l€∞T 12.786
R236 VDD.n36 VDD.n34 9.083
R237 VDD.n94 VDD.n92 9.083
R238 VDD.n151 VDD.n149 9.083
R239 VDD.n373 VDD.n371 9.083
R240 VDD.n316 VDD.n314 9.083
R241 VDD.n23 VDD.n22 8.855
R242 VDD.n22 VDD.n21 8.855
R243 VDD.n27 VDD.n26 8.855
R244 VDD.n26 VDD.n25 8.855
R245 VDD.n31 VDD.n30 8.855
R246 VDD.n30 VDD.n29 8.855
R247 VDD.n36 VDD.n35 8.855
R248 VDD.n35 VDD.t24 8.855
R249 VDD.n40 VDD.n39 8.855
R250 VDD.n39 VDD.n38 8.855
R251 VDD.n44 VDD.n43 8.855
R252 VDD.n43 VDD.n42 8.855
R253 VDD.n49 VDD.n48 8.855
R254 VDD.n48 VDD.n47 8.855
R255 VDD.n53 VDD.n52 8.855
R256 VDD.n52 VDD.n51 8.855
R257 VDD.n80 VDD.n79 8.855
R258 VDD.n79 VDD.n78 8.855
R259 VDD.n85 VDD.n84 8.855
R260 VDD.n84 VDD.n83 8.855
R261 VDD.n89 VDD.n88 8.855
R262 VDD.n88 VDD.n87 8.855
R263 VDD.n94 VDD.n93 8.855
R264 VDD.n93 0™ËòV 8.855
R265 VDD.n98 VDD.n97 8.855
R266 VDD.n97 VDD.n96 8.855
R267 VDD.n102 VDD.n101 8.855
R268 VDD.n101 VDD.n100 8.855
R269 VDD.n107 VDD.n106 8.855
R270 VDD.n106 VDD.n105 8.855
R271 VDD.n111 VDD.n110 8.855
R272 VDD.n110 VDD.n109 8.855
R273 VDD.n137 VDD.n136 8.855
R274 VDD.n136 VDD.n135 8.855
R275 VDD.n142 VDD.n141 8.855
R276 VDD.n141 VDD.n140 8.855
R277 VDD.n146 VDD.n145 8.855
R278 VDD.n145 VDD.n144 8.855
R279 VDD.n151 VDD.n150 8.855
R280 VDD.n150  l€∞T 8.855
R281 VDD.n155 VDD.n154 8.855
R282 VDD.n154 VDD.n153 8.855
R283 VDD.n159 VDD.n158 8.855
R284 VDD.n158 VDD.n157 8.855
R285 VDD.n164 VDD.n163 8.855
R286 VDD.n163 VDD.n162 8.855
R287 VDD.n168 VDD.n167 8.855
R288 VDD.n167 VDD.n166 8.855
R289 VDD.n194 VDD.n193 8.855
R290 VDD.n193 VDD.n192 8.855
R291 VDD.n199 VDD.n198 8.855
R292 VDD.n198 VDD.n197 8.855
R293 VDD.n377 VDD.n376 8.855
R294 VDD.n376 VDD.n375 8.855
R295 VDD.n373 VDD.n372 8.855
R296 VDD.n372  l€∞T 8.855
R297 VDD.n368 VDD.n367 8.855
R298 VDD.n367 VDD.n366 8.855
R299 VDD.n364 VDD.n363 8.855
R300 VDD.n363 VDD.n362 8.855
R301 VDD.n360 VDD.n359 8.855
R302 VDD.n359 VDD.n358 8.855
R303 VDD.n355 VDD.n354 8.855
R304 VDD.n354 VDD.n353 8.855
R305 VDD.n329 VDD.n328 8.855
R306 VDD.n328 VDD.n327 8.855
R307 VDD.n325 VDD.n324 8.855
R308 VDD.n324 VDD.n323 8.855
R309 VDD.n320 VDD.n319 8.855
R310 VDD.n319 VDD.n318 8.855
R311 VDD.n316 VDD.n315 8.855
R312 VDD.n315 k€∞T 8.855
R313 VDD.n311 VDD.n310 8.855
R314 VDD.n310 VDD.n309 8.855
R315 VDD.n307 VDD.n306 8.855
R316 VDD.n306 VDD.n305 8.855
R317 VDD.n303 VDD.n302 8.855
R318 VDD.n302 VDD.n301 8.855
R319 VDD.n298 VDD.n297 8.855
R320 VDD.n297 VDD.n296 8.855
R321 VDD.n271 VDD.n270 8.855
R322 VDD.n270 VDD.n269 8.855
R323 VDD.n267 VDD.n266 8.855
R324 VDD.n266 VDD.n265 8.855
R325 VDD.n263 VDD.n262 8.855
R326 VDD.n262 VDD.n261 8.855
R327 VDD.n259 VDD.n258 8.855
R328 VDD.n258 VDD.n257 8.855
R329 VDD.n255 VDD.n252 8.855
R330 VDD.n252 VDD.n251 8.855
R331 VDD.n249 VDD.n248 8.855
R332 VDD.n248 VDD.n247 8.855
R333 VDD.n245 VDD.n244 8.855
R334 VDD.n244 VDD.n243 8.855
R335 VDD.n241 VDD.n240 8.855
R336 VDD.n240 VDD.n239 8.855
R337 VDD.n235 VDD.n234 8.855
R338 VDD.n234 VDD.n233 8.855
R339 VDD.n231 VDD.n230 8.855
R340 VDD.n230 VDD.n229 8.855
R341 VDD.n226 VDD.n225 8.855
R342 VDD.n225 VDD.n224 8.855
R343 VDD.n222 VDD.n221 8.855
R344 VDD.n221 VDD.n220 8.855
R345 VDD.n346 VDD.n345 8.051
R346 VDD.n185 VDD.n184 8.051
R347 VDD.n128 VDD.n127 8.051
R348 VDD.n67 VDD.n66 8.051
R349 VDD.n285 VDD.n284 8.051
R350 VDD.n243 k€∞T 7.671
R351 VDD.n241 VDD.n238 7.019
R352 VDD.n255 VDD.n254 6.606
R353 VDD.n247 Ä¥côV 5.114
R354 VDD.n32 VDD.n31 4.65
R355 VDD.n37 VDD.n36 4.65
R356 VDD.n41 VDD.n40 4.65
R357 VDD.n45 VDD.n44 4.65
R358 VDD.n50 VDD.n49 4.65
R359 VDD.n54 VDD.n53 4.65
R360 VDD.n81 VDD.n80 4.65
R361 VDD.n86 VDD.n85 4.65
R362 VDD.n90 VDD.n89 4.65
R363 VDD.n95 VDD.n94 4.65
R364 VDD.n99 VDD.n98 4.65
R365 VDD.n103 VDD.n102 4.65
R366 VDD.n108 VDD.n107 4.65
R367 VDD.n112 VDD.n111 4.65
R368 VDD.n138 VDD.n137 4.65
R369 VDD.n143 VDD.n142 4.65
R370 VDD.n147 VDD.n146 4.65
R371 VDD.n152 VDD.n151 4.65
R372 VDD.n156 VDD.n155 4.65
R373 VDD.n160 VDD.n159 4.65
R374 VDD.n165 VDD.n164 4.65
R375 VDD.n169 VDD.n168 4.65
R376 VDD.n195 VDD.n194 4.65
R377 VDD.n200 VDD.n199 4.65
R378 VDD.n378 VDD.n377 4.65
R379 VDD.n374 VDD.n373 4.65
R380 VDD.n369 VDD.n368 4.65
R381 VDD.n365 VDD.n364 4.65
R382 VDD.n361 VDD.n360 4.65
R383 VDD.n356 VDD.n355 4.65
R384 VDD.n330 VDD.n329 4.65
R385 VDD.n326 VDD.n325 4.65
R386 VDD.n321 VDD.n320 4.65
R387 VDD.n317 VDD.n316 4.65
R388 VDD.n312 VDD.n311 4.65
R389 VDD.n308 VDD.n307 4.65
R390 VDD.n304 VDD.n303 4.65
R391 VDD.n299 VDD.n298 4.65
R392 VDD.n272 VDD.n271 4.65
R393 VDD.n268 VDD.n267 4.65
R394 VDD.n264 VDD.n263 4.65
R395 VDD.n260 VDD.n259 4.65
R396 VDD.n256 VDD.n255 4.65
R397 VDD.n250 VDD.n249 4.65
R398 VDD.n246 VDD.n245 4.65
R399 VDD.n242 VDD.n241 4.65
R400 VDD.n236 VDD.n235 4.65
R401 VDD.n232 VDD.n231 4.65
R402 VDD.n227 VDD.n226 4.65
R403 VDD.n223 VDD.n222 4.65
R404 VDD.n28 VDD.n23 2.933
R405 VDD.n49 VDD.n46 2.89
R406 VDD.n107 VDD.n104 2.89
R407 VDD.n164 VDD.n161 2.89
R408 VDD.n360 VDD.n357 2.89
R409 VDD.n303 VDD.n300 2.89
R410 VDD.n28 VDD.n27 2.844
R411 VDD.n38  l€∞T 2.557
R412 VDD.n96 k€∞T 2.557
R413 VDD.n153 >∏ôV 2.557
R414 VDD.n366  l€∞T 2.557
R415 VDD.n309  l€∞T 2.557
R416 VDD.n27 VDD.n24 2.477
R417 VDD.n85 VDD.n82 2.477
R418 VDD.n142 VDD.n139 2.477
R419 VDD.n199 VDD.n196 2.477
R420 VDD.n325 VDD.n322 2.477
R421 VDD.n32 VDD.n28 1.063
R422 VDD.n231 VDD.n228 0.412
R423 VDD.n81 VDD.n54 0.29
R424 VDD.n138 VDD.n112 0.29
R425 VDD.n195 VDD.n169 0.29
R426 VDD.n356 VDD.n330 0.29
R427 VDD.n299 VDD.n272 0.29
R428 VDD.n223 VDD 0.207
R429 VDD.n250 VDD.n246 0.197
R430 VDD.n41 VDD.n37 0.181
R431 VDD.n99 VDD.n95 0.181
R432 VDD.n156 VDD.n152 0.181
R433 VDD.n374 VDD.n369 0.181
R434 VDD.n317 VDD.n312 0.181
R435 VDD.n37 VDD.n32 0.145
R436 VDD.n45 VDD.n41 0.145
R437 VDD.n50 VDD.n45 0.145
R438 VDD.n54 VDD.n50 0.145
R439 VDD.n86 VDD.n81 0.145
R440 VDD.n90 VDD.n86 0.145
R441 VDD.n95 VDD.n90 0.145
R442 VDD.n103 VDD.n99 0.145
R443 VDD.n108 VDD.n103 0.145
R444 VDD.n112 VDD.n108 0.145
R445 VDD.n143 VDD.n138 0.145
R446 VDD.n147 VDD.n143 0.145
R447 VDD.n152 VDD.n147 0.145
R448 VDD.n160 VDD.n156 0.145
R449 VDD.n165 VDD.n160 0.145
R450 VDD.n169 VDD.n165 0.145
R451 VDD.n200 VDD.n195 0.145
R452 VDD.n378 VDD.n374 0.145
R453 VDD.n369 VDD.n365 0.145
R454 VDD.n365 VDD.n361 0.145
R455 VDD.n361 VDD.n356 0.145
R456 VDD.n330 VDD.n326 0.145
R457 VDD.n326 VDD.n321 0.145
R458 VDD.n321 VDD.n317 0.145
R459 VDD.n312 VDD.n308 0.145
R460 VDD.n308 VDD.n304 0.145
R461 VDD.n304 VDD.n299 0.145
R462 VDD.n272 VDD.n268 0.145
R463 VDD.n268 VDD.n264 0.145
R464 VDD.n264 VDD.n260 0.145
R465 VDD.n260 VDD.n256 0.145
R466 VDD.n256 VDD.n250 0.145
R467 VDD.n246 VDD.n242 0.145
R468 VDD.n242 VDD.n236 0.145
R469 VDD.n236 VDD.n232 0.145
R470 VDD.n232 VDD.n227 0.145
R471 VDD.n227 VDD.n223 0.145
R472 VDD VDD.n378 0.137
R473 VDD VDD.n200 0.008
R474 a_277_1050.n4 a_277_1050.t9 480.392
R475 a_277_1050.n2 a_277_1050.t10 480.392
R476 a_277_1050.n4 a_277_1050.t11 403.272
R477 a_277_1050.n2 a_277_1050.t7 403.272
R478 a_277_1050.n5 a_277_1050.t12 385.063
R479 a_277_1050.n3 a_277_1050.t8 385.063
R480 a_277_1050.n8 a_277_1050.n7 357.814
R481 a_277_1050.n11 a_277_1050.n10 161.352
R482 a_277_1050.n9 a_277_1050.n8 151.34
R483 a_277_1050.n5 a_277_1050.n4 143.429
R484 a_277_1050.n3 a_277_1050.n2 143.429
R485 a_277_1050.n9 a_277_1050.n1 95.095
R486 a_277_1050.n10 a_277_1050.n0 95.095
R487 a_277_1050.n10 a_277_1050.n9 66.258
R488 a_277_1050.n1 a_277_1050.t4 14.282
R489 a_277_1050.n1 a_277_1050.t6 14.282
R490 a_277_1050.n0 a_277_1050.t0 14.282
R491 a_277_1050.n0 a_277_1050.t3 14.282
R492 a_277_1050.n11 a_277_1050.t1 14.282
R493 a_277_1050.t2 a_277_1050.n11 14.282
R494 a_277_1050.n6 a_277_1050.n3 11.95
R495 a_277_1050.n8 a_277_1050.n6 5.965
R496 a_277_1050.n6 a_277_1050.n5 4.65
R497 QN.n0 QN.t7 480.392
R498 QN.n0 QN.t5 403.272
R499 QN.n1 QN.t6 357.204
R500 QN.n9 QN.n8 305.581
R501 QN.n1 QN.n0 171.288
R502 QN.n9 QN.n4 159.999
R503 QN.n4 QN.n3 157.964
R504 QN.n4 QN.n2 91.706
R505 QN.n8 QN.n7 30
R506 QN.n6 QN.n5 24.383
R507 QN.n8 QN.n6 23.684
R508 QN.n2 QN.t0 14.282
R509 QN.n2 QN.t4 14.282
R510 QN.n3 QN.t1 14.282
R511 QN.n3 QN.t2 14.282
R512 QN QN.n9 5.919
R513 QN.n10 QN.n1 4.65
R514 QN.n10 QN 0.046
R515 a_3072_101.n10 a_3072_101.n9 93.333
R516 a_3072_101.n12 a_3072_101.n11 68.43
R517 a_3072_101.n3 a_3072_101.n2 51.907
R518 a_3072_101.n3 a_3072_101.n1 51.594
R519 a_3072_101.t0 a_3072_101.n3 38.864
R520 a_3072_101.n7 a_3072_101.n6 38.626
R521 a_3072_101.n6 a_3072_101.n5 35.955
R522 a_3072_101.t1 a_3072_101.n8 8.137
R523 a_3072_101.t0 a_3072_101.n0 6.109
R524 a_3072_101.t1 a_3072_101.n7 4.864
R525 a_3072_101.t0 a_3072_101.n4 3.871
R526 a_3072_101.t0 a_3072_101.n13 2.535
R527 a_3072_101.n13 a_3072_101.t1 1.145
R528 a_3072_101.t1 a_3072_101.n12 0.763
R529 a_3072_101.n12 a_3072_101.n10 0.185
R530 GND.n142 GND.n141 237.558
R531 GND.n94 GND.n93 237.558
R532 GND.n175 GND.n174 237.558
R533 GND.n61 GND.n60 237.558
R534 GND.n31 GND.n30 237.558
R535 GND.n28 GND.n27 210.82
R536 GND.n144 GND.n143 210.82
R537 GND.n177 GND.n176 210.82
R538 GND.n91 GND.n90 210.82
R539 GND.n58 GND.n57 210.82
R540 GND.n47 GND.n46 172.612
R541 GND.n187 GND.n186 166.605
R542 GND.n111 GND.n110 152.358
R543 GND.n17 GND.n16 151.605
R544 GND.n80 GND.n79 151.605
R545 GND.n155 GND.n154 151.605
R546 GND.n16 GND.n15 28.421
R547 GND.n79 GND.n78 28.421
R548 GND.n154 GND.n153 28.421
R549 GND.n110 GND.n109 28.421
R550 GND.n16 GND.n14 25.263
R551 GND.n79 GND.n77 25.263
R552 GND.n154 GND.n152 25.263
R553 GND.n110 GND.n108 25.263
R554 GND.n14 GND.n13 24.383
R555 GND.n77 GND.n76 24.383
R556 GND.n152 GND.n151 24.383
R557 GND.n108 GND.n107 24.383
R558 GND.n186 GND.n184 23.03
R559 GND.n29 GND.n28 18.953
R560 GND.n145 GND.n144 18.953
R561 GND.n178 GND.n177 18.953
R562 GND.n92 GND.n91 18.953
R563 GND.n59 GND.n58 18.953
R564 GND.n32 GND.n29 14.864
R565 GND.n62 GND.n59 14.864
R566 GND.n95 GND.n92 14.864
R567 GND.n179 GND.n178 14.864
R568 GND.n146 GND.n145 14.864
R569 GND.n104 GND.n103 9.154
R570 GND.n112 GND.n106 9.154
R571 GND.n115 GND.n114 9.154
R572 GND.n118 GND.n117 9.154
R573 GND.n121 GND.n120 9.154
R574 GND.n124 GND.n123 9.154
R575 GND.n127 GND.n126 9.154
R576 GND.n130 GND.n129 9.154
R577 GND.n133 GND.n132 9.154
R578 GND.n136 GND.n135 9.154
R579 GND.n139 GND.n138 9.154
R580 GND.n146 GND.n142 9.154
R581 GND.n149 GND.n148 9.154
R582 GND.n157 GND.n156 9.154
R583 GND.n160 GND.n159 9.154
R584 GND.n163 GND.n162 9.154
R585 GND.n166 GND.n165 9.154
R586 GND.n169 GND.n168 9.154
R587 GND.n172 GND.n171 9.154
R588 GND.n179 GND.n175 9.154
R589 GND.n182 GND.n181 9.154
R590 GND.n189 GND.n188 9.154
R591 GND.n192 GND.n191 9.154
R592 GND.n195 GND.n194 9.154
R593 GND.n198 GND.n197 9.154
R594 GND.n98 GND.n97 9.154
R595 GND.n95 GND.n94 9.154
R596 GND.n88 GND.n87 9.154
R597 GND.n85 GND.n84 9.154
R598 GND.n82 GND.n81 9.154
R599 GND.n74 GND.n73 9.154
R600 GND.n71 GND.n70 9.154
R601 GND.n68 GND.n67 9.154
R602 GND.n65 GND.n64 9.154
R603 GND.n62 GND.n61 9.154
R604 GND.n55 GND.n54 9.154
R605 GND.n52 GND.n51 9.154
R606 GND.n49 GND.n48 9.154
R607 GND.n44 GND.n43 9.154
R608 GND.n41 GND.n40 9.154
R609 GND.n38 GND.n37 9.154
R610 GND.n35 GND.n34 9.154
R611 GND.n32 GND.n31 9.154
R612 GND.n25 GND.n24 9.154
R613 GND.n22 GND.n21 9.154
R614 GND.n19 GND.n18 9.154
R615 GND.n11 GND.n10 9.154
R616 GND.n8 GND.n7 9.154
R617 GND.n5 GND.n4 9.154
R618 GND.n2 GND.n1 9.154
R619 GND.n186 GND.n185 8.128
R620 GND.n102 GND.n101 4.65
R621 GND.n6 GND.n5 4.65
R622 GND.n9 GND.n8 4.65
R623 GND.n12 GND.n11 4.65
R624 GND.n20 GND.n19 4.65
R625 GND.n23 GND.n22 4.65
R626 GND.n26 GND.n25 4.65
R627 GND.n33 GND.n32 4.65
R628 GND.n36 GND.n35 4.65
R629 GND.n39 GND.n38 4.65
R630 GND.n42 GND.n41 4.65
R631 GND.n45 GND.n44 4.65
R632 GND.n50 GND.n49 4.65
R633 GND.n53 GND.n52 4.65
R634 GND.n56 GND.n55 4.65
R635 GND.n63 GND.n62 4.65
R636 GND.n66 GND.n65 4.65
R637 GND.n69 GND.n68 4.65
R638 GND.n72 GND.n71 4.65
R639 GND.n75 GND.n74 4.65
R640 GND.n83 GND.n82 4.65
R641 GND.n86 GND.n85 4.65
R642 GND.n89 GND.n88 4.65
R643 GND.n96 GND.n95 4.65
R644 GND.n99 GND.n98 4.65
R645 GND.n199 GND.n198 4.65
R646 GND.n196 GND.n195 4.65
R647 GND.n193 GND.n192 4.65
R648 GND.n190 GND.n189 4.65
R649 GND.n183 GND.n182 4.65
R650 GND.n180 GND.n179 4.65
R651 GND.n173 GND.n172 4.65
R652 GND.n170 GND.n169 4.65
R653 GND.n167 GND.n166 4.65
R654 GND.n164 GND.n163 4.65
R655 GND.n161 GND.n160 4.65
R656 GND.n158 GND.n157 4.65
R657 GND.n150 GND.n149 4.65
R658 GND.n147 GND.n146 4.65
R659 GND.n140 GND.n139 4.65
R660 GND.n137 GND.n136 4.65
R661 GND.n134 GND.n133 4.65
R662 GND.n131 GND.n130 4.65
R663 GND.n128 GND.n127 4.65
R664 GND.n125 GND.n124 4.65
R665 GND.n122 GND.n121 4.65
R666 GND.n119 GND.n118 4.65
R667 GND.n116 GND.n115 4.65
R668 GND.n113 GND.n112 4.65
R669 GND.n105 GND.n104 4.65
R670 GND.n19 GND.n17 4.129
R671 GND.n49 GND.n47 4.129
R672 GND.n82 GND.n80 4.129
R673 GND.n189 GND.n187 4.129
R674 GND.n157 GND.n155 4.129
R675 GND.n3 GND.n0 3.407
R676 GND.n3 GND.n2 2.844
R677 GND.n6 GND.n3 1.063
R678 GND.n101 GND.n100 0.474
R679 GND.n33 GND.n26 0.29
R680 GND.n63 GND.n56 0.29
R681 GND.n96 GND.n89 0.29
R682 GND.n180 GND.n173 0.29
R683 GND.n147 GND.n140 0.29
R684 GND.n102 GND 0.207
R685 GND.n112 GND.n111 0.206
R686 GND.n125 GND.n122 0.197
R687 GND.n12 GND.n9 0.181
R688 GND.n45 GND.n42 0.181
R689 GND.n75 GND.n72 0.181
R690 GND.n196 GND.n193 0.181
R691 GND.n164 GND.n161 0.181
R692 GND.n9 GND.n6 0.145
R693 GND.n20 GND.n12 0.145
R694 GND.n23 GND.n20 0.145
R695 GND.n26 GND.n23 0.145
R696 GND.n36 GND.n33 0.145
R697 GND.n39 GND.n36 0.145
R698 GND.n42 GND.n39 0.145
R699 GND.n50 GND.n45 0.145
R700 GND.n53 GND.n50 0.145
R701 GND.n56 GND.n53 0.145
R702 GND.n66 GND.n63 0.145
R703 GND.n69 GND.n66 0.145
R704 GND.n72 GND.n69 0.145
R705 GND.n83 GND.n75 0.145
R706 GND.n86 GND.n83 0.145
R707 GND.n89 GND.n86 0.145
R708 GND.n99 GND.n96 0.145
R709 GND.n199 GND.n196 0.145
R710 GND.n193 GND.n190 0.145
R711 GND.n190 GND.n183 0.145
R712 GND.n183 GND.n180 0.145
R713 GND.n173 GND.n170 0.145
R714 GND.n170 GND.n167 0.145
R715 GND.n167 GND.n164 0.145
R716 GND.n161 GND.n158 0.145
R717 GND.n158 GND.n150 0.145
R718 GND.n150 GND.n147 0.145
R719 GND.n140 GND.n137 0.145
R720 GND.n137 GND.n134 0.145
R721 GND.n134 GND.n131 0.145
R722 GND.n131 GND.n128 0.145
R723 GND.n128 GND.n125 0.145
R724 GND.n122 GND.n119 0.145
R725 GND.n119 GND.n116 0.145
R726 GND.n116 GND.n113 0.145
R727 GND.n113 GND.n105 0.145
R728 GND.n105 GND.n102 0.145
R729 GND GND.n199 0.137
R730 GND GND.n99 0.008
R731 CLK.n0 CLK.t1 472.359
R732 CLK.n2 CLK.t0 459.505
R733 CLK.n3 CLK.t4 399.181
R734 CLK.n1 CLK.t5 398.558
R735 CLK.n2 CLK.t2 384.527
R736 CLK.n0 CLK.t3 384.527
R737 CLK.n3 CLK.n2 33.832
R738 CLK.n1 CLK.n0 32.394
R739 CLK.n4 CLK.n1 9.575
R740 CLK.n4 CLK.n3 2.079
R741 CLK.n4 CLK 0.046
R742 Q.n8 Q.t7 472.359
R743 Q.n8 Q.t5 384.527
R744 Q.n9 Q.t6 342.755
R745 Q.n7 Q.n6 333.44
R746 Q.n2 Q.n1 157.964
R747 Q.n9 Q.n8 154.955
R748 Q.n7 Q.n2 132.141
R749 Q.n2 Q.n0 91.706
R750 Q.n6 Q.n5 30
R751 Q.n4 Q.n3 24.383
R752 Q.n6 Q.n4 23.684
R753 Q.n0 Q.t1 14.282
R754 Q.n0 Q.t0 14.282
R755 Q.n1 Q.t3 14.282
R756 Q.n1 Q.t4 14.282
R757 Q Q.n9 7.551
R758 Q.n10 Q.n7 4.65
R759 Q.n10 Q 0.046
R760 a_3738_101.n3 a_3738_101.n1 42.788
R761 a_3738_101.t0 a_3738_101.n0 8.137
R762 a_3738_101.n3 a_3738_101.n2 4.665
R763 a_3738_101.t0 a_3738_101.n3 0.06
R764 a_599_989.n1 a_599_989.t7 480.392
R765 a_599_989.n3 a_599_989.t9 454.685
R766 a_599_989.n3 a_599_989.t5 428.979
R767 a_599_989.n1 a_599_989.t10 403.272
R768 a_599_989.n2 a_599_989.t8 357.204
R769 a_599_989.n7 a_599_989.n6 327.32
R770 a_599_989.n4 a_599_989.t6 311.683
R771 a_599_989.n4 a_599_989.n3 171.288
R772 a_599_989.n2 a_599_989.n1 171.288
R773 a_599_989.n8 a_599_989.n7 159.999
R774 a_599_989.n9 a_599_989.n8 157.963
R775 a_599_989.n8 a_599_989.n0 91.706
R776 a_599_989.n0 a_599_989.t4 14.282
R777 a_599_989.n0 a_599_989.t0 14.282
R778 a_599_989.t3 a_599_989.n9 14.282
R779 a_599_989.n9 a_599_989.t2 14.282
R780 a_599_989.n5 a_599_989.n4 7.597
R781 a_599_989.n5 a_599_989.n2 5.965
R782 a_599_989.n7 a_599_989.n5 4.65
R783 D.n0 D.t1 472.359
R784 D.n0 D.t2 384.527
R785 D.n1 D.t0 219.801
R786 D.n1 D.n0 210.673
R787 D.n2 D.n1 4.65
R788 D.n2 D 0.046
R789 a_1074_101.n11 a_1074_101.n10 68.43
R790 a_1074_101.n3 a_1074_101.n2 62.817
R791 a_1074_101.n7 a_1074_101.n6 38.626
R792 a_1074_101.n6 a_1074_101.n5 35.955
R793 a_1074_101.n3 a_1074_101.n1 26.202
R794 a_1074_101.t0 a_1074_101.n3 19.737
R795 a_1074_101.t1 a_1074_101.n8 8.137
R796 a_1074_101.t0 a_1074_101.n4 7.273
R797 a_1074_101.t0 a_1074_101.n0 6.109
R798 a_1074_101.t1 a_1074_101.n7 4.864
R799 a_1074_101.t0 a_1074_101.n12 2.074
R800 a_1074_101.n12 a_1074_101.t1 0.937
R801 a_1074_101.t1 a_1074_101.n11 0.763
R802 a_1074_101.n11 a_1074_101.n9 0.185
R803 a_372_210.n10 a_372_210.n8 171.558
R804 a_372_210.n8 a_372_210.t1 75.764
R805 a_372_210.n3 a_372_210.n2 27.476
R806 a_372_210.n10 a_372_210.n9 27.2
R807 a_372_210.n11 a_372_210.n0 23.498
R808 a_372_210.n11 a_372_210.n10 22.4
R809 a_372_210.t1 a_372_210.n5 20.241
R810 a_372_210.n7 a_372_210.n6 19.952
R811 a_372_210.t1 a_372_210.n3 13.984
R812 a_372_210.n5 a_372_210.n4 13.494
R813 a_372_210.t1 a_372_210.n1 7.04
R814 a_372_210.n8 a_372_210.n7 1.505
R815 a_2406_101.n3 a_2406_101.n1 42.788
R816 a_2406_101.t0 a_2406_101.n0 8.137
R817 a_2406_101.n3 a_2406_101.n2 4.665
R818 a_2406_101.t0 a_2406_101.n3 0.06
R819 a_91_103.n5 a_91_103.n4 66.708
R820 a_91_103.n2 a_91_103.n0 25.439
R821 a_91_103.n5 a_91_103.n3 19.496
R822 a_91_103.t0 a_91_103.n5 13.756
R823 a_91_103.n2 a_91_103.n1 2.455
R824 a_91_103.t0 a_91_103.n2 0.246
R825 a_1740_101.n3 a_1740_101.n1 42.788
R826 a_1740_101.t0 a_1740_101.n0 8.137
R827 a_1740_101.n3 a_1740_101.n2 4.665
R828 a_1740_101.t0 a_1740_101.n3 0.06
C6 VDD GND 6.94fF
C7 a_1740_101.n0 GND 0.05fF
C8 a_1740_101.n1 GND 0.12fF
C9 a_1740_101.n2 GND 0.04fF
C10 a_1740_101.n3 GND 0.17fF
C11 a_91_103.n0 GND 0.10fF
C12 a_91_103.n1 GND 0.03fF
C13 a_91_103.n2 GND 0.03fF
C14 a_91_103.n3 GND 0.07fF
C15 a_91_103.n4 GND 0.08fF
C16 a_91_103.n5 GND 0.03fF
C17 a_2406_101.n0 GND 0.05fF
C18 a_2406_101.n1 GND 0.12fF
C19 a_2406_101.n2 GND 0.04fF
C20 a_2406_101.n3 GND 0.17fF
C21 a_372_210.n0 GND 0.02fF
C22 a_372_210.n1 GND 0.09fF
C23 a_372_210.n2 GND 0.12fF
C24 a_372_210.n3 GND 0.08fF
C25 a_372_210.n4 GND 0.08fF
C26 a_372_210.n5 GND 0.02fF
C27 a_372_210.t1 GND 0.29fF
C28 a_372_210.n6 GND 0.09fF
C29 a_372_210.n7 GND 0.02fF
C30 a_372_210.n8 GND 0.13fF
C31 a_372_210.n9 GND 0.02fF
C32 a_372_210.n10 GND 0.03fF
C33 a_372_210.n11 GND 0.03fF
C34 a_1074_101.n0 GND 0.02fF
C35 a_1074_101.n1 GND 0.09fF
C36 a_1074_101.n2 GND 0.08fF
C37 a_1074_101.n3 GND 0.03fF
C38 a_1074_101.n4 GND 0.01fF
C39 a_1074_101.n5 GND 0.04fF
C40 a_1074_101.n6 GND 0.04fF
C41 a_1074_101.n7 GND 0.02fF
C42 a_1074_101.n8 GND 0.05fF
C43 a_1074_101.n9 GND 0.15fF
C44 a_1074_101.n10 GND 0.08fF
C45 a_1074_101.n11 GND 0.08fF
C46 a_1074_101.t1 GND 0.23fF
C47 a_1074_101.n12 GND 0.01fF
C48 a_599_989.n0 GND 0.40fF
C49 a_599_989.n1 GND 0.34fF
C50 a_599_989.n2 GND 0.49fF
C51 a_599_989.n3 GND 0.34fF
C52 a_599_989.t6 GND 0.54fF
C53 a_599_989.n4 GND 0.57fF
C54 a_599_989.n5 GND 0.88fF
C55 a_599_989.n6 GND 0.34fF
C56 a_599_989.n7 GND 0.53fF
C57 a_599_989.n8 GND 0.60fF
C58 a_599_989.n9 GND 0.51fF
C59 a_3738_101.n0 GND 0.05fF
C60 a_3738_101.n1 GND 0.12fF
C61 a_3738_101.n2 GND 0.04fF
C62 a_3738_101.n3 GND 0.16fF
C63 Q.n0 GND 0.39fF
C64 Q.n1 GND 0.50fF
C65 Q.n2 GND 0.56fF
C66 Q.n3 GND 0.04fF
C67 Q.n4 GND 0.05fF
C68 Q.n5 GND 0.03fF
C69 Q.n6 GND 0.26fF
C70 Q.n7 GND 0.51fF
C71 Q.n8 GND 0.30fF