* SPICE3 file created from FA.ext - technology: sky130A

.subckt FA SUM COUT A B CIN VDD GND
X0 GND A.t1 a_556_101.t0 GND sky130_fd_pr__nfet_01v8 ad=1.09968p pd=7.906u as=0p ps=0u w=0u l=0u
X1 VDD.t16 a_836_209.t6 a_2405_209.t2 VDD.t15 sky130_fd_pr__pfet_01v8 ad=0p pd=0u as=0p ps=0u w=2u l=0.15u
X2 a_807_990.t1 B.t0 VDD.t66  sky130_fd_pr__pfet_01v8 ad=0p pd=0u as=0p ps=0u w=2u l=0.15u
X3 VDD.t24 a_4657_1050.t6 a_5291_209.t1  sky130_fd_pr__pfet_01v8 ad=0p pd=0u as=0p ps=0u w=2u l=0.15u
X4 a_185_209.t1 A.t0 VDD.t55  |µ‹ sky130_fd_pr__pfet_01v8 ad=0p pd=0u as=0p ps=0u w=2u l=0.15u
X5 a_3027_990.t1 CIN.t1 VDD.t46 ð{µ‹ sky130_fd_pr__pfet_01v8 ad=0p pd=0u as=0p ps=0u w=2u l=0.15u
X6 SUM.t0 a_3027_990.t3 a_2795_1051.t3  |µ‹ sky130_fd_pr__pfet_01v8 ad=0p pd=0u as=0p ps=0u w=2u l=0.15u
X7 COUT.t1 a_6858_209.t4 VDD.t30 ð{µ‹ sky130_fd_pr__pfet_01v8 ad=0p pd=0u as=0p ps=0u w=2u l=0.15u
X8 GND a_3027_990.t4 a_3442_101.t0 GND sky130_fd_pr__nfet_01v8 ad=0p pd=0u as=0p ps=0u w=0u l=0u
X9 a_3461_1051.t3 a_2405_209.t3 SUM.t4  |µ‹ sky130_fd_pr__pfet_01v8 ad=0p pd=0u as=0p ps=0u w=2u l=0.15u
X10 VDD.t69 B.t2 a_5767_1050.t4 ð{µ‹ sky130_fd_pr__pfet_01v8 ad=0p pd=0u as=0p ps=0u w=2u l=0.15u
X11 VDD.t14 a_836_209.t8 a_4657_1050.t1  |µ‹ sky130_fd_pr__pfet_01v8 ad=0p pd=0u as=0p ps=0u w=2u l=0.15u
X12 COUT a_6858_209.t5 GND.t19 GND sky130_fd_pr__nfet_01v8 ad=1.791p pd=1.57u as=0p ps=0u w=0u l=0u
X13 a_575_1051.t3 a_807_990.t3 a_836_209.t2 ð{µ‹ sky130_fd_pr__pfet_01v8 ad=0p pd=0u as=0p ps=0u w=2u l=0.15u
X14 a_2795_1051.t1 a_836_209.t9 VDD.t12  |µ‹ sky130_fd_pr__pfet_01v8 ad=0p pd=0u as=0p ps=0u w=2u l=0.15u
X15 VDD.t18 CIN.t2 a_3461_1051.t1 ð{µ‹ sky130_fd_pr__pfet_01v8 ad=0p pd=0u as=0p ps=0u w=2u l=0.15u
X16 a_4657_1050.t4 CIN.t3 VDD.t20  |µ‹ sky130_fd_pr__pfet_01v8 ad=0p pd=0u as=0p ps=0u w=2u l=0.15u
X17 a_1241_1051.t3 B.t3 VDD.t34 ð{µ‹ sky130_fd_pr__pfet_01v8 ad=0p pd=0u as=0p ps=0u w=2u l=0.15u
X18 VDD.t36 a_5291_209.t4 a_6791_1051.t3  |µ‹ sky130_fd_pr__pfet_01v8 ad=0p pd=0u as=0p ps=0u w=2u l=0.15u
X19 VDD.t48 a_5767_1050.t6 a_6401_209.t1 ð{µ‹ sky130_fd_pr__pfet_01v8 ad=0p pd=0u as=0p ps=0u w=2u l=0.15u
X20 a_6791_1051.t1 a_6401_209.t4 a_6858_209.t2  |µ‹ sky130_fd_pr__pfet_01v8 ad=0p pd=0u as=0p ps=0u w=2u l=0.15u
X21 a_2405_209.t1 a_836_209.t10 VDD.t10 ð{µ‹ sky130_fd_pr__pfet_01v8 ad=0p pd=0u as=0p ps=0u w=2u l=0.15u
X22 a_4657_1050.t0 a_836_209.t11 VDD.t8  |µ‹ sky130_fd_pr__pfet_01v8 ad=0p pd=0u as=0p ps=0u w=2u l=0.15u
X23 a_836_209.t5 a_807_990.t4 a_575_1051.t2 ð{µ‹ sky130_fd_pr__pfet_01v8 ad=0p pd=0u as=0p ps=0u w=2u l=0.15u
X24 a_5291_209.t0 a_4657_1050.t7 VDD.t22  |µ‹ sky130_fd_pr__pfet_01v8 ad=0p pd=0u as=0p ps=0u w=2u l=0.15u
X25 a_1241_1051.t1 a_185_209.t4 a_836_209.t1 ð{µ‹ sky130_fd_pr__pfet_01v8 ad=0p pd=0u as=0p ps=0u w=2u l=0.15u
X26 SUM a_2405_209.t5 a_3442_101.t1 GND sky130_fd_pr__nfet_01v8 ad=3.582p pd=3.14u as=0p ps=0u w=0u l=0u
X27 VDD.t40 A.t4 a_575_1051.t1  |µ‹ sky130_fd_pr__pfet_01v8 ad=0p pd=0u as=0p ps=0u w=2u l=0.15u
X28 VDD.t28 A.t5 a_185_209.t0 ð{µ‹ sky130_fd_pr__pfet_01v8 ad=0p pd=0u as=0p ps=0u w=2u l=0.15u
X29 SUM.t3 a_2405_209.t4 a_3461_1051.t2  |µ‹ sky130_fd_pr__pfet_01v8 ad=0p pd=0u as=0p ps=0u w=2u l=0.15u
X30 VDD.t53 CIN.t5 a_3027_990.t0 ð{µ‹ sky130_fd_pr__pfet_01v8 ad=0p pd=0u as=0p ps=0u w=2u l=0.15u
X31 a_5767_1050.t3 B.t6 VDD.t64  |µ‹ sky130_fd_pr__pfet_01v8 ad=0p pd=0u as=0p ps=0u w=2u l=0.15u
X32 GND CIN.t6 a_4552_101.t0 GND sky130_fd_pr__nfet_01v8 ad=0p pd=0u as=0p ps=0u w=0u l=0u
X33 VDD.t1 A.t6 a_5767_1050.t1 ð{µ‹ sky130_fd_pr__pfet_01v8 ad=0p pd=0u as=0p ps=0u w=2u l=0.15u
X34 GND a_836_209.t12 a_2776_101.t0 GND sky130_fd_pr__nfet_01v8 ad=0p pd=0u as=0p ps=0u w=0u l=0u
X35 a_2795_1051.t2 a_3027_990.t5 SUM.t1  |µ‹ sky130_fd_pr__pfet_01v8 ad=0p pd=0u as=0p ps=0u w=2u l=0.15u
X36 VDD.t32 B.t7 a_1241_1051.t2 ð{µ‹ sky130_fd_pr__pfet_01v8 ad=0p pd=0u as=0p ps=0u w=2u l=0.15u
X37 a_5767_1050.t0 A.t7 VDD.t4  |µ‹ sky130_fd_pr__pfet_01v8 ad=0p pd=0u as=0p ps=0u w=2u l=0.15u
X38 VDD.t43 a_6858_209.t6 COUT.t0 ð{µ‹ sky130_fd_pr__pfet_01v8 ad=0p pd=0u as=0p ps=0u w=2u l=0.15u
X39 GND a_807_990.t5 a_1222_101.t0 GND sky130_fd_pr__nfet_01v8 ad=0p pd=0u as=0p ps=0u w=0u l=0u
X40 a_3461_1051.t0 CIN.t7 VDD.t59  |µ‹ sky130_fd_pr__pfet_01v8 ad=0p pd=0u as=0p ps=0u w=2u l=0.15u
X41 a_6401_209.t0 a_5767_1050.t7 VDD.t50 ð{µ‹ sky130_fd_pr__pfet_01v8 ad=0p pd=0u as=0p ps=0u w=2u l=0.15u
X42 a_6858_209.t1 a_6401_209.t5 a_6791_1051.t0  |µ‹ sky130_fd_pr__pfet_01v8 ad=0p pd=0u as=0p ps=0u w=2u l=0.15u
X43 SUM CIN.t0 a_2776_101.t0 GND sky130_fd_pr__nfet_01v8 ad=0p pd=0u as=0p ps=0u w=0u l=0u
X44 VDD.t71 CIN.t8 a_4657_1050.t3 ð{µ‹ sky130_fd_pr__pfet_01v8 ad=0p pd=0u as=0p ps=0u w=2u l=0.15u
X45 GND B.t1 a_5662_101.t0 GND sky130_fd_pr__nfet_01v8 ad=0p pd=0u as=0p ps=0u w=0u l=0u
X46 a_575_1051.t0 A.t8 VDD.t38  |µ‹ sky130_fd_pr__pfet_01v8 ad=0p pd=0u as=0p ps=0u w=2u l=0.15u
X47 a_836_209.t0 a_185_209.t5 a_1241_1051.t0 ð{µ‹ sky130_fd_pr__pfet_01v8 ad=0p pd=0u as=0p ps=0u w=2u l=0.15u
X48 VDD.t26 B.t8 a_807_990.t0  |µ‹ sky130_fd_pr__pfet_01v8 ad=0p pd=0u as=0p ps=0u w=2u l=0.15u
X49 a_6791_1051.t2 a_5291_209.t5 VDD.t57 ð{µ‹ sky130_fd_pr__pfet_01v8 ad=0p pd=0u as=0p ps=0u w=2u l=0.15u
X50 VDD.t6 a_836_209.t14 a_2795_1051.t0  |µ‹ sky130_fd_pr__pfet_01v8 ad=0p pd=0u as=0p ps=0u w=2u l=0.15u
C0 COUT VDD 1.04fF
C1 SUM A 0.26fF
C2 VDD A 1.59fF
C3 SUM B 0.24fF
C4 VDD B 3.94fF
C5 CIN A 0.54fF
C6 CIN B 1.51fF
C7 SUM VDD 1.04fF
C8 SUM CIN 0.62fF
C9 A B 0.85fF
C10 CIN VDD 2.13fF
R0 a_836_209.n1 a_836_209.t6 512.525
R1 a_836_209.n2 a_836_209.t9 480.392
R2 a_836_209.n5 a_836_209.t8 472.359
R3 a_836_209.n3 a_836_209.t12 412.921
R4 a_836_209.n2 a_836_209.t14 403.272
R5 a_836_209.n5 a_836_209.t11 384.527
R6 a_836_209.n1 a_836_209.t10 371.139
R7 a_836_209.n11 a_836_209.n10 327.32
R8 a_836_209.n15 a_836_209.n13 312.103
R9 a_836_209.n6 a_836_209.n5 294.249
R10 a_836_209.n11 a_836_209.n9 260.107
R11 a_836_209.n13 a_836_209.n0 260.107
R12 a_836_209.n4 a_836_209.n1 163.771
R13 a_836_209.n6 a_836_209.t7 136.225
R14 a_836_209.n7 a_836_209.t13 132.04
R15 a_836_209.n3 a_836_209.n2 115.947
R16 a_836_209.n8 a_836_209.n7 111.435
R17 a_836_209.n8 a_836_209.n4 55.717
R18 a_836_209.n7 a_836_209.n6 18.232
R19 a_836_209.n15 a_836_209.n14 15.218
R20 a_836_209.n9 a_836_209.t1 14.282
R21 a_836_209.n9 a_836_209.t0 14.282
R22 a_836_209.n0 a_836_209.t2 14.282
R23 a_836_209.n0 a_836_209.t5 14.282
R24 a_836_209.n16 a_836_209.n15 12.014
R25 a_836_209.n4 a_836_209.n3 11.159
R26 a_836_209.n12 a_836_209.n8 7.325
R27 a_836_209.n13 a_836_209.n12 7.053
R28 a_836_209.n12 a_836_209.n11 4.65
R29 a_2405_209.n2 a_2405_209.t4 477.179
R30 a_2405_209.n2 a_2405_209.t3 406.485
R31 a_2405_209.n3 a_2405_209.t5 341.566
R32 a_2405_209.n6 a_2405_209.n4 272.451
R33 a_2405_209.n4 a_2405_209.n1 271.281
R34 a_2405_209.n3 a_2405_209.n2 199.524
R35 a_2405_209.n6 a_2405_209.n5 30
R36 a_2405_209.n7 a_2405_209.n0 24.383
R37 a_2405_209.n7 a_2405_209.n6 23.684
R38 a_2405_209.n1 a_2405_209.t2 14.282
R39 a_2405_209.n1 a_2405_209.t1 14.282
R40 a_2405_209.n4 a_2405_209.n3 13.879
R41 VDD.n443 VDD.n442 173.148
R42 VDD.n498 VDD.n497 173.148
R43 VDD.n641 VDD.n640 173.148
R44 VDD.n696 VDD.n695 173.148
R45 VDD.n422 VDD.n411 144.705
R46 VDD.n474 VDD.n467 144.705
R47 VDD.n529 VDD.n522 144.705
R48 VDD.n589 VDD.n582 144.705
R49 VDD.n617 VDD.n610 144.705
R50 VDD.n367 VDD.n360 144.705
R51 VDD.n672 VDD.n665 144.705
R52 VDD.n323 VDD.n316 144.705
R53 VDD.n266 VDD.n259 144.705
R54 VDD.n222 VDD.n215 144.705
R55 VDD.n165 VDD.n158 144.705
R56 VDD.n121 VDD.n114 144.705
R57 VDD.n66 VDD.n55 144.705
R58 VDD.n269 VDD.t14 143.754
R59 VDD.n170 VDD.t1 143.754
R60 VDD.n395 VDD.t55 135.17
R61 VDD.n402 VDD.t28 135.17
R62 VDD.n548 VDD.t66 135.17
R63 VDD.n557 VDD.t26 135.17
R64 VDD.n594 VDD.t10 135.17
R65 VDD.n601 VDD.t16 135.17
R66 VDD.n335 VDD.t46 135.17
R67 VDD.n326 VDD.t53 135.17
R68 VDD.n291 VDD.t20 135.17
R69 VDD.n236 VDD.t22 135.17
R70 VDD.n225 VDD.t24 135.17
R71 VDD.n190 VDD.t64 135.17
R72 VDD.n133 VDD.t50 135.17
R73 VDD.n124 VDD.t48 135.17
R74 VDD.n35 VDD.t30 135.17
R75 VDD.n24 VDD.t43 135.17
R76 VDD.n85 VDD.n84 129.849
R77 VDD.n279 VDD.n278 129.472
R78 VDD.n179 VDD.n178 129.472
R79 VDD.n51 VDD.n50 92.5
R80 VDD.n49 VDD.n48 92.5
R81 VDD.n47 VDD.n46 92.5
R82 VDD.n45 VDD.n44 92.5
R83 VDD.n53 VDD.n52 92.5
R84 VDD.n110 VDD.n109 92.5
R85 VDD.n108 VDD.n107 92.5
R86 VDD.n106 VDD.n105 92.5
R87 VDD.n104 VDD.n103 92.5
R88 VDD.n112 VDD.n111 92.5
R89 VDD.n154 VDD.n153 92.5
R90 VDD.n152 VDD.n151 92.5
R91 VDD.n150 VDD.n149 92.5
R92 VDD.n148 VDD.n147 92.5
R93 VDD.n156 VDD.n155 92.5
R94 VDD.n211 VDD.n210 92.5
R95 VDD.n209 VDD.n208 92.5
R96 VDD.n207 VDD.n206 92.5
R97 VDD.n205 VDD.n204 92.5
R98 VDD.n213 VDD.n212 92.5
R99 VDD.n255 VDD.n254 92.5
R100 VDD.n253 VDD.n252 92.5
R101 VDD.n251 VDD.n250 92.5
R102 VDD.n249 VDD.n248 92.5
R103 VDD.n257 VDD.n256 92.5
R104 VDD.n312 VDD.n311 92.5
R105 VDD.n310 VDD.n309 92.5
R106 VDD.n308 VDD.n307 92.5
R107 VDD.n306 VDD.n305 92.5
R108 VDD.n314 VDD.n313 92.5
R109 VDD.n356 VDD.n355 92.5
R110 VDD.n354 VDD.n353 92.5
R111 VDD.n352 VDD.n351 92.5
R112 VDD.n350 VDD.n349 92.5
R113 VDD.n358 VDD.n357 92.5
R114 VDD.n685 VDD.n684 92.5
R115 VDD.n683 VDD.n682 92.5
R116 VDD.n681 VDD.n680 92.5
R117 VDD.n679 VDD.n678 92.5
R118 VDD.n687 VDD.n686 92.5
R119 VDD.n630 VDD.n629 92.5
R120 VDD.n628 VDD.n627 92.5
R121 VDD.n626 VDD.n625 92.5
R122 VDD.n624 VDD.n623 92.5
R123 VDD.n632 VDD.n631 92.5
R124 VDD.n578 VDD.n577 92.5
R125 VDD.n576 VDD.n575 92.5
R126 VDD.n574 VDD.n573 92.5
R127 VDD.n572 VDD.n571 92.5
R128 VDD.n580 VDD.n579 92.5
R129 VDD.n542 VDD.n541 92.5
R130 VDD.n540 VDD.n539 92.5
R131 VDD.n538 VDD.n537 92.5
R132 VDD.n536 VDD.n535 92.5
R133 VDD.n544 VDD.n543 92.5
R134 VDD.n487 VDD.n486 92.5
R135 VDD.n485 VDD.n484 92.5
R136 VDD.n483 VDD.n482 92.5
R137 VDD.n481 VDD.n480 92.5
R138 VDD.n489 VDD.n488 92.5
R139 VDD.n432 VDD.n431 92.5
R140 VDD.n430 VDD.n429 92.5
R141 VDD.n428 VDD.n427 92.5
R142 VDD.n426 VDD.n425 92.5
R143 VDD.n434 VDD.n433 92.5
R144 VDD.n381 VDD.n380 92.5
R145 VDD.n379 VDD.n378 92.5
R146 VDD.n377 VDD.n376 92.5
R147 VDD.n375 VDD.n374 92.5
R148 VDD.n383 VDD.n382 92.5
R149 VDD.n14 VDD.n1 92.5
R150 VDD.n5 VDD.n4 92.5
R151 VDD.n7 VDD.n6 92.5
R152 VDD.n9 VDD.n8 92.5
R153 VDD.n11 VDD.n10 92.5
R154 VDD.n13 VDD.n12 92.5
R155 VDD.n21 VDD.n20 92.059
R156 VDD.n65 VDD.n64 92.059
R157 VDD.n120 VDD.n119 92.059
R158 VDD.n164 VDD.n163 92.059
R159 VDD.n221 VDD.n220 92.059
R160 VDD.n265 VDD.n264 92.059
R161 VDD.n322 VDD.n321 92.059
R162 VDD.n366 VDD.n365 92.059
R163 VDD.n671 VDD.n670 92.059
R164 VDD.n616 VDD.n615 92.059
R165 VDD.n588 VDD.n587 92.059
R166 VDD.n528 VDD.n527 92.059
R167 VDD.n473 VDD.n472 92.059
R168 VDD.n421 VDD.n420 92.059
R169 VDD.n389 VDD.n388 92.059
R170 VDD.n20 VDD.n16 67.194
R171 VDD.n20 VDD.n17 67.194
R172 VDD.n20 VDD.n18 67.194
R173 VDD.n20 VDD.n19 67.194
R174 VDD.n373 VDD.n372 44.141
R175 VDD.n479 VDD.n478 44.141
R176 VDD.n534 VDD.n533 44.141
R177 VDD.n570 VDD.n569 44.141
R178 VDD.n622 VDD.n621 44.141
R179 VDD.n677 VDD.n676 44.141
R180 VDD.n348 VDD.n347 44.141
R181 VDD.n304 VDD.n303 44.141
R182 VDD.n247 VDD.n246 44.141
R183 VDD.n203 VDD.n202 44.141
R184 VDD.n146 VDD.n145 44.141
R185 VDD.n102 VDD.n101 44.141
R186 VDD.n5 VDD.n3 44.141
R187 VDD.n478 VDD.n476 44.107
R188 VDD.n533 VDD.n531 44.107
R189 VDD.n569 VDD.n567 44.107
R190 VDD.n621 VDD.n619 44.107
R191 VDD.n676 VDD.n674 44.107
R192 VDD.n347 VDD.n345 44.107
R193 VDD.n303 VDD.n301 44.107
R194 VDD.n246 VDD.n244 44.107
R195 VDD.n202 VDD.n200 44.107
R196 VDD.n145 VDD.n143 44.107
R197 VDD.n101 VDD.n99 44.107
R198 VDD.n372 VDD.n370 44.107
R199 VDD.n3 VDD.n2 44.107
R200 VDD.n25 ð{µ‹ 43.472
R201 VDD.n33 ð{µ‹ 43.472
R202 VDD.n125 ð{µ‹ 43.472
R203 VDD.n134 ð{µ‹ 43.472
R204 VDD.n226  43.472
R205 VDD.n234  |µ‹ 43.472
R206 VDD.n327 ð{µ‹ 43.472
R207 VDD.n336 ð{µ‹ 43.472
R208 VDD.n602 VDD.t15 43.472
R209 VDD.n592 ð{µ‹ 43.472
R210 VDD.n558  |µ‹ 43.472
R211 VDD.n549  43.472
R212 VDD.n403 ð{µ‹ 43.472
R213 VDD.n393  |µ‹ 43.472
R214 VDD.n20 VDD.n15 41.052
R215 VDD.n59 VDD.n57 39.742
R216 VDD.n59 VDD.n58 39.742
R217 VDD.n61 VDD.n60 39.742
R218 VDD.n116 VDD.n115 39.742
R219 VDD.n160 VDD.n159 39.742
R220 VDD.n217 VDD.n216 39.742
R221 VDD.n261 VDD.n260 39.742
R222 VDD.n318 VDD.n317 39.742
R223 VDD.n362 VDD.n361 39.742
R224 VDD.n667 VDD.n666 39.742
R225 VDD.n612 VDD.n611 39.742
R226 VDD.n584 VDD.n583 39.742
R227 VDD.n524 VDD.n523 39.742
R228 VDD.n469 VDD.n468 39.742
R229 VDD.n385 VDD.n384 39.742
R230 VDD.n419 VDD.n416 39.742
R231 VDD.n419 VDD.n418 39.742
R232 VDD.n415 VDD.n414 39.742
R233 VDD.n101 VDD.n100 38
R234 VDD.n145 VDD.n144 38
R235 VDD.n202 VDD.n201 38
R236 VDD.n246 VDD.n245 38
R237 VDD.n303 VDD.n302 38
R238 VDD.n347 VDD.n346 38
R239 VDD.n676 VDD.n675 38
R240 VDD.n621 VDD.n620 38
R241 VDD.n569 VDD.n568 38
R242 VDD.n533 VDD.n532 38
R243 VDD.n478 VDD.n477 38
R244 VDD.n372 VDD.n371 38
R245 VDD.n476 VDD.n475 36.774
R246 VDD.n531 VDD.n530 36.774
R247 VDD.n567 VDD.n566 36.774
R248 VDD.n619 VDD.n618 36.774
R249 VDD.n674 VDD.n673 36.774
R250 VDD.n345 VDD.n344 36.774
R251 VDD.n301 VDD.n300 36.774
R252 VDD.n244 VDD.n243 36.774
R253 VDD.n200 VDD.n199 36.774
R254 VDD.n143 VDD.n142 36.774
R255 VDD.n99 VDD.n98 36.774
R256 VDD.n57 VDD.n56 36.774
R257 VDD.n418 VDD.n417 36.774
R258 VDD.n1 VDD.n0 30.923
R259 VDD.n64 VDD.n62 26.38
R260 VDD.n64 VDD.n61 26.38
R261 VDD.n64 VDD.n59 26.38
R262 VDD.n64 VDD.n63 26.38
R263 VDD.n119 VDD.n117 26.38
R264 VDD.n119 VDD.n116 26.38
R265 VDD.n119 VDD.n118 26.38
R266 VDD.n163 VDD.n161 26.38
R267 VDD.n163 VDD.n160 26.38
R268 VDD.n163 VDD.n162 26.38
R269 VDD.n220 VDD.n218 26.38
R270 VDD.n220 VDD.n217 26.38
R271 VDD.n220 VDD.n219 26.38
R272 VDD.n264 VDD.n262 26.38
R273 VDD.n264 VDD.n261 26.38
R274 VDD.n264 VDD.n263 26.38
R275 VDD.n321 VDD.n319 26.38
R276 VDD.n321 VDD.n318 26.38
R277 VDD.n321 VDD.n320 26.38
R278 VDD.n365 VDD.n363 26.38
R279 VDD.n365 VDD.n362 26.38
R280 VDD.n365 VDD.n364 26.38
R281 VDD.n670 VDD.n668 26.38
R282 VDD.n670 VDD.n667 26.38
R283 VDD.n670 VDD.n669 26.38
R284 VDD.n615 VDD.n613 26.38
R285 VDD.n615 VDD.n612 26.38
R286 VDD.n615 VDD.n614 26.38
R287 VDD.n587 VDD.n585 26.38
R288 VDD.n587 VDD.n584 26.38
R289 VDD.n587 VDD.n586 26.38
R290 VDD.n527 VDD.n525 26.38
R291 VDD.n527 VDD.n524 26.38
R292 VDD.n527 VDD.n526 26.38
R293 VDD.n472 VDD.n470 26.38
R294 VDD.n472 VDD.n469 26.38
R295 VDD.n472 VDD.n471 26.38
R296 VDD.n388 VDD.n386 26.38
R297 VDD.n388 VDD.n385 26.38
R298 VDD.n388 VDD.n387 26.38
R299 VDD.n420 VDD.n419 26.38
R300 VDD.n420 VDD.n415 26.38
R301 VDD.n420 VDD.n413 26.38
R302 VDD.n420 VDD.n412 26.38
R303 VDD.n391 VDD.n383 22.915
R304 VDD.n23 VDD.n14 22.915
R305 VDD.n73  |µ‹ 20.457
R306 VDD.n173 ð{µ‹ 20.457
R307 VDD.n274  |µ‹ 20.457
R308 VDD.n708  |µ‹ 20.457
R309 VDD.n653  |µ‹ 20.457
R310 VDD.n510 ð{µ‹ 20.457
R311 VDD.n455 ð{µ‹ 20.457
R312 VDD.n86  |µ‹ 17.9
R313 VDD.n186  |µ‹ 17.9
R314 VDD.n287  |µ‹ 17.9
R315 VDD.n697 ð{µ‹ 17.9
R316 VDD.n642  |µ‹ 17.9
R317 VDD.n499 ð{µ‹ 17.9
R318 VDD.n444  |µ‹ 17.9
R319 VDD.n383 VDD.n381 14.864
R320 VDD.n381 VDD.n379 14.864
R321 VDD.n379 VDD.n377 14.864
R322 VDD.n377 VDD.n375 14.864
R323 VDD.n375 VDD.n373 14.864
R324 VDD.n489 VDD.n487 14.864
R325 VDD.n487 VDD.n485 14.864
R326 VDD.n485 VDD.n483 14.864
R327 VDD.n483 VDD.n481 14.864
R328 VDD.n481 VDD.n479 14.864
R329 VDD.n544 VDD.n542 14.864
R330 VDD.n542 VDD.n540 14.864
R331 VDD.n540 VDD.n538 14.864
R332 VDD.n538 VDD.n536 14.864
R333 VDD.n536 VDD.n534 14.864
R334 VDD.n580 VDD.n578 14.864
R335 VDD.n578 VDD.n576 14.864
R336 VDD.n576 VDD.n574 14.864
R337 VDD.n574 VDD.n572 14.864
R338 VDD.n572 VDD.n570 14.864
R339 VDD.n632 VDD.n630 14.864
R340 VDD.n630 VDD.n628 14.864
R341 VDD.n628 VDD.n626 14.864
R342 VDD.n626 VDD.n624 14.864
R343 VDD.n624 VDD.n622 14.864
R344 VDD.n687 VDD.n685 14.864
R345 VDD.n685 VDD.n683 14.864
R346 VDD.n683 VDD.n681 14.864
R347 VDD.n681 VDD.n679 14.864
R348 VDD.n679 VDD.n677 14.864
R349 VDD.n358 VDD.n356 14.864
R350 VDD.n356 VDD.n354 14.864
R351 VDD.n354 VDD.n352 14.864
R352 VDD.n352 VDD.n350 14.864
R353 VDD.n350 VDD.n348 14.864
R354 VDD.n314 VDD.n312 14.864
R355 VDD.n312 VDD.n310 14.864
R356 VDD.n310 VDD.n308 14.864
R357 VDD.n308 VDD.n306 14.864
R358 VDD.n306 VDD.n304 14.864
R359 VDD.n257 VDD.n255 14.864
R360 VDD.n255 VDD.n253 14.864
R361 VDD.n253 VDD.n251 14.864
R362 VDD.n251 VDD.n249 14.864
R363 VDD.n249 VDD.n247 14.864
R364 VDD.n213 VDD.n211 14.864
R365 VDD.n211 VDD.n209 14.864
R366 VDD.n209 VDD.n207 14.864
R367 VDD.n207 VDD.n205 14.864
R368 VDD.n205 VDD.n203 14.864
R369 VDD.n156 VDD.n154 14.864
R370 VDD.n154 VDD.n152 14.864
R371 VDD.n152 VDD.n150 14.864
R372 VDD.n150 VDD.n148 14.864
R373 VDD.n148 VDD.n146 14.864
R374 VDD.n112 VDD.n110 14.864
R375 VDD.n110 VDD.n108 14.864
R376 VDD.n108 VDD.n106 14.864
R377 VDD.n106 VDD.n104 14.864
R378 VDD.n104 VDD.n102 14.864
R379 VDD.n53 VDD.n51 14.864
R380 VDD.n51 VDD.n49 14.864
R381 VDD.n49 VDD.n47 14.864
R382 VDD.n47 VDD.n45 14.864
R383 VDD.n45 VDD.n43 14.864
R384 VDD.n43 VDD.n42 14.864
R385 VDD.n434 VDD.n432 14.864
R386 VDD.n432 VDD.n430 14.864
R387 VDD.n430 VDD.n428 14.864
R388 VDD.n428 VDD.n426 14.864
R389 VDD.n426 VDD.n424 14.864
R390 VDD.n424 VDD.n423 14.864
R391 VDD.n14 VDD.n13 14.864
R392 VDD.n13 VDD.n11 14.864
R393 VDD.n11 VDD.n9 14.864
R394 VDD.n9 VDD.n7 14.864
R395 VDD.n7 VDD.n5 14.864
R396 VDD.n67 VDD.n54 14.864
R397 VDD.n122 VDD.n113 14.864
R398 VDD.n166 VDD.n157 14.864
R399 VDD.n223 VDD.n214 14.864
R400 VDD.n267 VDD.n258 14.864
R401 VDD.n324 VDD.n315 14.864
R402 VDD.n368 VDD.n359 14.864
R403 VDD.n689 VDD.n688 14.864
R404 VDD.n634 VDD.n633 14.864
R405 VDD.n590 VDD.n581 14.864
R406 VDD.n546 VDD.n545 14.864
R407 VDD.n491 VDD.n490 14.864
R408 VDD.n436 VDD.n435 14.864
R409 VDD.n442 VDD.t38 14.282
R410 VDD.n442 VDD.t40 14.282
R411 VDD.n497 VDD.t34 14.282
R412 VDD.n497 VDD.t32 14.282
R413 VDD.n640 VDD.t12 14.282
R414 VDD.n640 VDD.t6 14.282
R415 VDD.n695 VDD.t59 14.282
R416 VDD.n695 VDD.t18 14.282
R417 VDD.n278 VDD.t8 14.282
R418 VDD.n278 VDD.t71 14.282
R419 VDD.n178 VDD.t4 14.282
R420 VDD.n178 VDD.t69 14.282
R421 VDD.n84 VDD.t57 14.282
R422 VDD.n84 VDD.t36 14.282
R423 VDD.n180 VDD.n179 9.083
R424 VDD.n281 VDD.n279 9.083
R425 VDD.n23 VDD.n22 8.855
R426 VDD.n22 VDD.n21 8.855
R427 VDD.n27 VDD.n26 8.855
R428 VDD.n26 VDD.n25 8.855
R429 VDD.n31 VDD.n30 8.855
R430 VDD.n30 VDD.n29 8.855
R431 VDD.n36 VDD.n34 8.855
R432 VDD.n34 VDD.n33 8.855
R433 VDD.n40 VDD.n39 8.855
R434 VDD.n39 VDD.n38 8.855
R435 VDD.n67 VDD.n66 8.855
R436 VDD.n66 VDD.n65 8.855
R437 VDD.n71 VDD.n70 8.855
R438 VDD.n70 VDD.n69 8.855
R439 VDD.n75 VDD.n74 8.855
R440 VDD.n74 VDD.n73 8.855
R441 VDD.n78 VDD.n77 8.855
R442 VDD.n77  |µ‹ 8.855
R443 VDD.n82 VDD.n81 8.855
R444 VDD.n81 VDD.n80 8.855
R445 VDD.n88 VDD.n87 8.855
R446 VDD.n87 VDD.n86 8.855
R447 VDD.n92 VDD.n91 8.855
R448 VDD.n91 VDD.n90 8.855
R449 VDD.n96 VDD.n95 8.855
R450 VDD.n95 VDD.n94 8.855
R451 VDD.n122 VDD.n121 8.855
R452 VDD.n121 VDD.n120 8.855
R453 VDD.n127 VDD.n126 8.855
R454 VDD.n126 VDD.n125 8.855
R455 VDD.n131 VDD.n130 8.855
R456 VDD.n130 VDD.n129 8.855
R457 VDD.n136 VDD.n135 8.855
R458 VDD.n135 VDD.n134 8.855
R459 VDD.n140 VDD.n139 8.855
R460 VDD.n139 VDD.n138 8.855
R461 VDD.n166 VDD.n165 8.855
R462 VDD.n165 VDD.n164 8.855
R463 VDD.n171 VDD.n169 8.855
R464 VDD.n169 VDD.n168 8.855
R465 VDD.n175 VDD.n174 8.855
R466 VDD.n174 VDD.n173 8.855
R467 VDD.n180 VDD.n177 8.855
R468 VDD.n177  |µ‹ 8.855
R469 VDD.n184 VDD.n183 8.855
R470 VDD.n183 VDD.n182 8.855
R471 VDD.n188 VDD.n187 8.855
R472 VDD.n187 VDD.n186 8.855
R473 VDD.n193 VDD.n192 8.855
R474 VDD.n192 VDD.n191 8.855
R475 VDD.n197 VDD.n196 8.855
R476 VDD.n196 VDD.n195 8.855
R477 VDD.n223 VDD.n222 8.855
R478 VDD.n222 VDD.n221 8.855
R479 VDD.n228 VDD.n227 8.855
R480 VDD.n227 VDD.n226 8.855
R481 VDD.n232 VDD.n231 8.855
R482 VDD.n231 VDD.n230 8.855
R483 VDD.n237 VDD.n235 8.855
R484 VDD.n235 VDD.n234 8.855
R485 VDD.n241 VDD.n240 8.855
R486 VDD.n240 VDD.n239 8.855
R487 VDD.n267 VDD.n266 8.855
R488 VDD.n266 VDD.n265 8.855
R489 VDD.n272 VDD.n271 8.855
R490 VDD.n271 VDD.n270 8.855
R491 VDD.n276 VDD.n275 8.855
R492 VDD.n275 VDD.n274 8.855
R493 VDD.n281 VDD.n280 8.855
R494 VDD.n280  |µ‹ 8.855
R495 VDD.n285 VDD.n284 8.855
R496 VDD.n284 VDD.n283 8.855
R497 VDD.n289 VDD.n288 8.855
R498 VDD.n288 VDD.n287 8.855
R499 VDD.n294 VDD.n293 8.855
R500 VDD.n293 VDD.n292 8.855
R501 VDD.n298 VDD.n297 8.855
R502 VDD.n297 VDD.n296 8.855
R503 VDD.n324 VDD.n323 8.855
R504 VDD.n323 VDD.n322 8.855
R505 VDD.n329 VDD.n328 8.855
R506 VDD.n328 VDD.n327 8.855
R507 VDD.n333 VDD.n332 8.855
R508 VDD.n332 VDD.n331 8.855
R509 VDD.n338 VDD.n337 8.855
R510 VDD.n337 VDD.n336 8.855
R511 VDD.n342 VDD.n341 8.855
R512 VDD.n341 VDD.n340 8.855
R513 VDD.n368 VDD.n367 8.855
R514 VDD.n367 VDD.n366 8.855
R515 VDD.n714 VDD.n713 8.855
R516 VDD.n713 VDD.n712 8.855
R517 VDD.n710 VDD.n709 8.855
R518 VDD.n709 VDD.n708 8.855
R519 VDD.n706 VDD.n705 8.855
R520 VDD.n705  |µ‹ 8.855
R521 VDD.n703 VDD.n702 8.855
R522 VDD.n702 VDD.n701 8.855
R523 VDD.n699 VDD.n698 8.855
R524 VDD.n698 VDD.n697 8.855
R525 VDD.n693 VDD.n692 8.855
R526 VDD.n692 VDD.n691 8.855
R527 VDD.n689 VDD.n672 8.855
R528 VDD.n672 VDD.n671 8.855
R529 VDD.n663 VDD.n662 8.855
R530 VDD.n662 VDD.n661 8.855
R531 VDD.n659 VDD.n658 8.855
R532 VDD.n658 VDD.n657 8.855
R533 VDD.n655 VDD.n654 8.855
R534 VDD.n654 VDD.n653 8.855
R535 VDD.n651 VDD.n650 8.855
R536 VDD.n650  |µ‹ 8.855
R537 VDD.n648 VDD.n647 8.855
R538 VDD.n647 VDD.n646 8.855
R539 VDD.n644 VDD.n643 8.855
R540 VDD.n643 VDD.n642 8.855
R541 VDD.n638 VDD.n637 8.855
R542 VDD.n637 VDD.n636 8.855
R543 VDD.n634 VDD.n617 8.855
R544 VDD.n617 VDD.n616 8.855
R545 VDD.n608 VDD.n607 8.855
R546 VDD.n607 VDD.n606 8.855
R547 VDD.n604 VDD.n603 8.855
R548 VDD.n603 VDD.n602 8.855
R549 VDD.n599 VDD.n598 8.855
R550 VDD.n598 VDD.n597 8.855
R551 VDD.n595 VDD.n593 8.855
R552 VDD.n593 VDD.n592 8.855
R553 VDD.n590 VDD.n589 8.855
R554 VDD.n589 VDD.n588 8.855
R555 VDD.n564 VDD.n563 8.855
R556 VDD.n563 VDD.n562 8.855
R557 VDD.n560 VDD.n559 8.855
R558 VDD.n559 VDD.n558 8.855
R559 VDD.n555 VDD.n554 8.855
R560 VDD.n554 VDD.n553 8.855
R561 VDD.n551 VDD.n550 8.855
R562 VDD.n550 VDD.n549 8.855
R563 VDD.n546 VDD.n529 8.855
R564 VDD.n529 VDD.n528 8.855
R565 VDD.n520 VDD.n519 8.855
R566 VDD.n519 VDD.n518 8.855
R567 VDD.n516 VDD.n515 8.855
R568 VDD.n515 VDD.n514 8.855
R569 VDD.n512 VDD.n511 8.855
R570 VDD.n511 VDD.n510 8.855
R571 VDD.n508 VDD.n507 8.855
R572 VDD.n507 ð{µ‹ 8.855
R573 VDD.n505 VDD.n504 8.855
R574 VDD.n504 VDD.n503 8.855
R575 VDD.n501 VDD.n500 8.855
R576 VDD.n500 VDD.n499 8.855
R577 VDD.n495 VDD.n494 8.855
R578 VDD.n494 VDD.n493 8.855
R579 VDD.n491 VDD.n474 8.855
R580 VDD.n474 VDD.n473 8.855
R581 VDD.n465 VDD.n464 8.855
R582 VDD.n464 VDD.n463 8.855
R583 VDD.n461 VDD.n460 8.855
R584 VDD.n460 VDD.n459 8.855
R585 VDD.n457 VDD.n456 8.855
R586 VDD.n456 VDD.n455 8.855
R587 VDD.n453 VDD.n452 8.855
R588 VDD.n452 ð{µ‹ 8.855
R589 VDD.n450 VDD.n449 8.855
R590 VDD.n449 VDD.n448 8.855
R591 VDD.n446 VDD.n445 8.855
R592 VDD.n445 VDD.n444 8.855
R593 VDD.n440 VDD.n439 8.855
R594 VDD.n439 VDD.n438 8.855
R595 VDD.n436 VDD.n422 8.855
R596 VDD.n422 VDD.n421 8.855
R597 VDD.n409 VDD.n408 8.855
R598 VDD.n408 VDD.n407 8.855
R599 VDD.n405 VDD.n404 8.855
R600 VDD.n404 VDD.n403 8.855
R601 VDD.n400 VDD.n399 8.855
R602 VDD.n399 VDD.n398 8.855
R603 VDD.n396 VDD.n394 8.855
R604 VDD.n394 VDD.n393 8.855
R605 VDD.n391 VDD.n390 8.855
R606 VDD.n390 VDD.n389 8.855
R607 VDD.n490 VDD.n489 8.051
R608 VDD.n545 VDD.n544 8.051
R609 VDD.n581 VDD.n580 8.051
R610 VDD.n633 VDD.n632 8.051
R611 VDD.n688 VDD.n687 8.051
R612 VDD.n359 VDD.n358 8.051
R613 VDD.n315 VDD.n314 8.051
R614 VDD.n258 VDD.n257 8.051
R615 VDD.n214 VDD.n213 8.051
R616 VDD.n157 VDD.n156 8.051
R617 VDD.n113 VDD.n112 8.051
R618 VDD.n54 VDD.n53 8.051
R619 VDD.n435 VDD.n434 8.051
R620 VDD.n88 VDD.n85 6.193
R621 VDD.n699 VDD.n696 6.193
R622 VDD.n644 VDD.n641 6.193
R623 VDD.n501 VDD.n498 6.193
R624 VDD.n446 VDD.n443 6.193
R625 VDD.n28 VDD.n23 4.795
R626 VDD.n28 VDD.n27 4.65
R627 VDD.n32 VDD.n31 4.65
R628 VDD.n37 VDD.n36 4.65
R629 VDD.n41 VDD.n40 4.65
R630 VDD.n68 VDD.n67 4.65
R631 VDD.n72 VDD.n71 4.65
R632 VDD.n76 VDD.n75 4.65
R633 VDD.n79 VDD.n78 4.65
R634 VDD.n83 VDD.n82 4.65
R635 VDD.n89 VDD.n88 4.65
R636 VDD.n93 VDD.n92 4.65
R637 VDD.n97 VDD.n96 4.65
R638 VDD.n123 VDD.n122 4.65
R639 VDD.n128 VDD.n127 4.65
R640 VDD.n132 VDD.n131 4.65
R641 VDD.n137 VDD.n136 4.65
R642 VDD.n141 VDD.n140 4.65
R643 VDD.n167 VDD.n166 4.65
R644 VDD.n172 VDD.n171 4.65
R645 VDD.n176 VDD.n175 4.65
R646 VDD.n181 VDD.n180 4.65
R647 VDD.n185 VDD.n184 4.65
R648 VDD.n189 VDD.n188 4.65
R649 VDD.n194 VDD.n193 4.65
R650 VDD.n198 VDD.n197 4.65
R651 VDD.n224 VDD.n223 4.65
R652 VDD.n229 VDD.n228 4.65
R653 VDD.n233 VDD.n232 4.65
R654 VDD.n238 VDD.n237 4.65
R655 VDD.n242 VDD.n241 4.65
R656 VDD.n268 VDD.n267 4.65
R657 VDD.n273 VDD.n272 4.65
R658 VDD.n277 VDD.n276 4.65
R659 VDD.n282 VDD.n281 4.65
R660 VDD.n286 VDD.n285 4.65
R661 VDD.n290 VDD.n289 4.65
R662 VDD.n295 VDD.n294 4.65
R663 VDD.n299 VDD.n298 4.65
R664 VDD.n325 VDD.n324 4.65
R665 VDD.n330 VDD.n329 4.65
R666 VDD.n334 VDD.n333 4.65
R667 VDD.n339 VDD.n338 4.65
R668 VDD.n343 VDD.n342 4.65
R669 VDD.n369 VDD.n368 4.65
R670 VDD.n715 VDD.n714 4.65
R671 VDD.n711 VDD.n710 4.65
R672 VDD.n707 VDD.n706 4.65
R673 VDD.n704 VDD.n703 4.65
R674 VDD.n700 VDD.n699 4.65
R675 VDD.n694 VDD.n693 4.65
R676 VDD.n690 VDD.n689 4.65
R677 VDD.n664 VDD.n663 4.65
R678 VDD.n660 VDD.n659 4.65
R679 VDD.n656 VDD.n655 4.65
R680 VDD.n652 VDD.n651 4.65
R681 VDD.n649 VDD.n648 4.65
R682 VDD.n645 VDD.n644 4.65
R683 VDD.n639 VDD.n638 4.65
R684 VDD.n635 VDD.n634 4.65
R685 VDD.n609 VDD.n608 4.65
R686 VDD.n605 VDD.n604 4.65
R687 VDD.n600 VDD.n599 4.65
R688 VDD.n596 VDD.n595 4.65
R689 VDD.n591 VDD.n590 4.65
R690 VDD.n565 VDD.n564 4.65
R691 VDD.n561 VDD.n560 4.65
R692 VDD.n556 VDD.n555 4.65
R693 VDD.n552 VDD.n551 4.65
R694 VDD.n547 VDD.n546 4.65
R695 VDD.n521 VDD.n520 4.65
R696 VDD.n517 VDD.n516 4.65
R697 VDD.n513 VDD.n512 4.65
R698 VDD.n509 VDD.n508 4.65
R699 VDD.n506 VDD.n505 4.65
R700 VDD.n502 VDD.n501 4.65
R701 VDD.n496 VDD.n495 4.65
R702 VDD.n492 VDD.n491 4.65
R703 VDD.n466 VDD.n465 4.65
R704 VDD.n462 VDD.n461 4.65
R705 VDD.n458 VDD.n457 4.65
R706 VDD.n454 VDD.n453 4.65
R707 VDD.n451 VDD.n450 4.65
R708 VDD.n447 VDD.n446 4.65
R709 VDD.n441 VDD.n440 4.65
R710 VDD.n437 VDD.n436 4.65
R711 VDD.n410 VDD.n409 4.65
R712 VDD.n406 VDD.n405 4.65
R713 VDD.n401 VDD.n400 4.65
R714 VDD.n397 VDD.n396 4.65
R715 VDD.n392 VDD.n391 4.65
R716 VDD.n193 VDD.n190 2.89
R717 VDD.n294 VDD.n291 2.89
R718 VDD.n80 ð{µ‹ 2.557
R719 VDD.n182 ð{µ‹ 2.557
R720 VDD.n283 ð{µ‹ 2.557
R721 VDD.n701  |µ‹ 2.557
R722 VDD.n646  |µ‹ 2.557
R723 VDD.n503 ð{µ‹ 2.557
R724 VDD.n448  |µ‹ 2.557
R725 VDD.n171 VDD.n170 2.477
R726 VDD.n272 VDD.n269 2.477
R727 VDD.n27 VDD.n24 2.064
R728 VDD.n36 VDD.n35 2.064
R729 VDD.n127 VDD.n124 2.064
R730 VDD.n136 VDD.n133 2.064
R731 VDD.n228 VDD.n225 2.064
R732 VDD.n237 VDD.n236 2.064
R733 VDD.n329 VDD.n326 2.064
R734 VDD.n338 VDD.n335 2.064
R735 VDD.n604 VDD.n601 2.064
R736 VDD.n595 VDD.n594 2.064
R737 VDD.n560 VDD.n557 2.064
R738 VDD.n551 VDD.n548 2.064
R739 VDD.n405 VDD.n402 2.064
R740 VDD.n396 VDD.n395 2.064
R741 VDD.n68 VDD.n41 0.29
R742 VDD.n123 VDD.n97 0.29
R743 VDD.n167 VDD.n141 0.29
R744 VDD.n224 VDD.n198 0.29
R745 VDD.n268 VDD.n242 0.29
R746 VDD.n325 VDD.n299 0.29
R747 VDD.n369 VDD.n343 0.29
R748 VDD.n690 VDD.n664 0.29
R749 VDD.n635 VDD.n609 0.29
R750 VDD.n591 VDD.n565 0.29
R751 VDD.n547 VDD.n521 0.29
R752 VDD.n492 VDD.n466 0.29
R753 VDD.n437 VDD.n410 0.29
R754 VDD.n392 VDD 0.207
R755 VDD.n83 VDD.n79 0.181
R756 VDD.n185 VDD.n181 0.181
R757 VDD.n286 VDD.n282 0.181
R758 VDD.n707 VDD.n704 0.181
R759 VDD.n652 VDD.n649 0.181
R760 VDD.n509 VDD.n506 0.181
R761 VDD.n454 VDD.n451 0.181
R762 VDD.n32 VDD.n28 0.157
R763 VDD.n37 VDD.n32 0.157
R764 VDD.n132 VDD.n128 0.157
R765 VDD.n137 VDD.n132 0.157
R766 VDD.n233 VDD.n229 0.157
R767 VDD.n238 VDD.n233 0.157
R768 VDD.n334 VDD.n330 0.157
R769 VDD.n339 VDD.n334 0.157
R770 VDD.n605 VDD.n600 0.157
R771 VDD.n600 VDD.n596 0.157
R772 VDD.n561 VDD.n556 0.157
R773 VDD.n556 VDD.n552 0.157
R774 VDD.n406 VDD.n401 0.157
R775 VDD.n401 VDD.n397 0.157
R776 VDD.n41 VDD.n37 0.145
R777 VDD.n72 VDD.n68 0.145
R778 VDD.n76 VDD.n72 0.145
R779 VDD.n79 VDD.n76 0.145
R780 VDD.n89 VDD.n83 0.145
R781 VDD.n93 VDD.n89 0.145
R782 VDD.n97 VDD.n93 0.145
R783 VDD.n128 VDD.n123 0.145
R784 VDD.n141 VDD.n137 0.145
R785 VDD.n172 VDD.n167 0.145
R786 VDD.n176 VDD.n172 0.145
R787 VDD.n181 VDD.n176 0.145
R788 VDD.n189 VDD.n185 0.145
R789 VDD.n194 VDD.n189 0.145
R790 VDD.n198 VDD.n194 0.145
R791 VDD.n229 VDD.n224 0.145
R792 VDD.n242 VDD.n238 0.145
R793 VDD.n273 VDD.n268 0.145
R794 VDD.n277 VDD.n273 0.145
R795 VDD.n282 VDD.n277 0.145
R796 VDD.n290 VDD.n286 0.145
R797 VDD.n295 VDD.n290 0.145
R798 VDD.n299 VDD.n295 0.145
R799 VDD.n330 VDD.n325 0.145
R800 VDD.n343 VDD.n339 0.145
R801 VDD.n715 VDD.n711 0.145
R802 VDD.n711 VDD.n707 0.145
R803 VDD.n704 VDD.n700 0.145
R804 VDD.n700 VDD.n694 0.145
R805 VDD.n694 VDD.n690 0.145
R806 VDD.n664 VDD.n660 0.145
R807 VDD.n660 VDD.n656 0.145
R808 VDD.n656 VDD.n652 0.145
R809 VDD.n649 VDD.n645 0.145
R810 VDD.n645 VDD.n639 0.145
R811 VDD.n639 VDD.n635 0.145
R812 VDD.n609 VDD.n605 0.145
R813 VDD.n596 VDD.n591 0.145
R814 VDD.n565 VDD.n561 0.145
R815 VDD.n552 VDD.n547 0.145
R816 VDD.n521 VDD.n517 0.145
R817 VDD.n517 VDD.n513 0.145
R818 VDD.n513 VDD.n509 0.145
R819 VDD.n506 VDD.n502 0.145
R820 VDD.n502 VDD.n496 0.145
R821 VDD.n496 VDD.n492 0.145
R822 VDD.n466 VDD.n462 0.145
R823 VDD.n462 VDD.n458 0.145
R824 VDD.n458 VDD.n454 0.145
R825 VDD.n451 VDD.n447 0.145
R826 VDD.n447 VDD.n441 0.145
R827 VDD.n441 VDD.n437 0.145
R828 VDD.n410 VDD.n406 0.145
R829 VDD.n397 VDD.n392 0.145
R830 VDD VDD.n369 0.078
R831 VDD VDD.n715 0.066
R832 CIN.n2 CIN.t1 512.525
R833 CIN.n0 CIN.t8 480.392
R834 CIN.n5 CIN.t7 480.392
R835 CIN.n1 CIN.t6 412.921
R836 CIN.n0 CIN.t3 403.272
R837 CIN.n5 CIN.t2 403.272
R838 CIN.n2 CIN.t5 371.139
R839 CIN.n3 CIN.t0 299.455
R840 CIN.n3 CIN.t4 227.134
R841 CIN.n4 CIN.n2 163.771
R842 CIN.n4 CIN.n3 139.294
R843 CIN.n6 CIN.n5 123.272