* SPICE3 file created from TMRDFFSNQNX1.ext - technology: sky130A

.subckt TMRDFFSNQNX1 QN D CLK SN VDD GND
X0 VDD.t9 a_8357_1050.t5 a_8483_411.t1  sky130_fd_pr__pfet_01v8 ad=0p pd=0u as=0p ps=0u w=2u l=0.15u
X1 VDD.t112 D.t0 a_5101_1050.t4 VDD.t111 sky130_fd_pr__pfet_01v8 ad=0p pd=0u as=0p ps=0u w=2u l=0.15u
X2 a_5227_411.t6 CLK.t0 VDD.t36 0<–· sky130_fd_pr__pfet_01v8 ad=0p pd=0u as=0p ps=0u w=2u l=0.15u
X3 a_14869_1051.t7 a_3599_411.t7 a_15533_1051.t5  sky130_fd_pr__pfet_01v8 ad=0p pd=0u as=0p ps=0u w=2u l=0.15u
X4 VDD.t80 D.t1 a_217_1050.t2 0<–· sky130_fd_pr__pfet_01v8 ad=0p pd=0u as=0p ps=0u w=2u l=0.15u
X5 VDD.t130 a_1265_989.t5 a_1905_1050.t5  sky130_fd_pr__pfet_01v8 ad=0p pd=0u as=0p ps=0u w=2u l=0.15u
X6 a_9985_1050.t1 a_10111_411.t7 VDD.t1 0<–· sky130_fd_pr__pfet_01v8 ad=0p pd=0u as=0p ps=0u w=2u l=0.15u
X7 GND a_9985_1050.t6 a_11487_103.t0 GND sky130_fd_pr__nfet_01v8 ad=3.7611p pd=3.297u as=0p ps=0u w=0u l=0u
X8 VDD.t44 a_5101_1050.t5 a_6789_1050.t1  sky130_fd_pr__pfet_01v8 ad=0p pd=0u as=0p ps=0u w=2u l=0.15u
X9 a_15533_1051.t3 a_13367_411.t7 QN.t5 0<–· sky130_fd_pr__pfet_01v8 ad=0p pd=0u as=0p ps=0u w=2u l=0.15u
X10 a_6789_1050.t2 a_6149_989.t5 VDD.t66  sky130_fd_pr__pfet_01v8 ad=0p pd=0u as=0p ps=0u w=2u l=0.15u
X11 VDD.t177 a_11033_989.t5 a_11673_1050.t6 0<–· sky130_fd_pr__pfet_01v8 ad=0p pd=0u as=0p ps=0u w=2u l=0.15u
X12 a_3599_411.t1 a_1265_989.t6 VDD.t128  sky130_fd_pr__pfet_01v8 ad=0p pd=0u as=0p ps=0u w=2u l=0.15u
X13 a_13241_1050.t1 a_10111_411.t8 VDD.t191 0<–· sky130_fd_pr__pfet_01v8 ad=0p pd=0u as=0p ps=0u w=2u l=0.15u
X14 a_1905_1050.t1 a_217_1050.t5 VDD.t84  sky130_fd_pr__pfet_01v8 ad=0p pd=0u as=0p ps=0u w=2u l=0.15u
X15 VDD.t48 a_11673_1050.t7 a_11033_989.t0 0<–· sky130_fd_pr__pfet_01v8 ad=0p pd=0u as=0p ps=0u w=2u l=0.15u
X16 a_14869_1051.t3 a_8483_411.t8 a_15533_1051.t2  sky130_fd_pr__pfet_01v8 ad=0p pd=0u as=0p ps=0u w=2u l=0.15u
X17 VDD.t5 a_343_411.t7 a_217_1050.t0 0<–· sky130_fd_pr__pfet_01v8 ad=0p pd=0u as=0p ps=0u w=2u l=0.15u
X18 VDD.t54 a_5227_411.t7 a_5101_1050.t2  sky130_fd_pr__pfet_01v8 ad=0p pd=0u as=0p ps=0u w=2u l=0.15u
X19 GND a_11673_1050.t8 a_12470_101.t0 GND sky130_fd_pr__nfet_01v8 ad=0p pd=0u as=0p ps=0u w=0u l=0u
X20 a_11673_1050.t5 a_11033_989.t6 VDD.t56 0<–· sky130_fd_pr__pfet_01v8 ad=0p pd=0u as=0p ps=0u w=2u l=0.15u
X21 VDD.t132 a_217_1050.t6 a_343_411.t1  sky130_fd_pr__pfet_01v8 ad=0p pd=0u as=0p ps=0u w=2u l=0.15u
X22 a_3473_1050.t1 a_3599_411.t9 VDD.t110 0<–· sky130_fd_pr__pfet_01v8 ad=0p pd=0u as=0p ps=0u w=2u l=0.15u
X23 VDD.t70 a_13241_1050.t5 a_13367_411.t2  sky130_fd_pr__pfet_01v8 ad=0p pd=0u as=0p ps=0u w=2u l=0.15u
X24 a_10111_411.t6 CLK.t2 VDD.t159 0<–· sky130_fd_pr__pfet_01v8 ad=0p pd=0u as=0p ps=0u w=2u l=0.15u
X25 GND a_8483_411.t11 a_15430_101.t0 GND sky130_fd_pr__nfet_01v8 ad=0p pd=0u as=0p ps=0u w=0u l=0u
X26 a_5227_411.t2 a_6149_989.t7 VDD.t90  sky130_fd_pr__pfet_01v8 ad=0p pd=0u as=0p ps=0u w=2u l=0.15u
X27 VDD.t76 a_11033_989.t7 a_10111_411.t1 0<–· sky130_fd_pr__pfet_01v8 ad=0p pd=0u as=0p ps=0u w=2u l=0.15u
X28 VDD.t104 a_5227_411.t8 a_8357_1050.t1  sky130_fd_pr__pfet_01v8 ad=0p pd=0u as=0p ps=0u w=2u l=0.15u
X29 a_13241_1050.t4 a_13367_411.t9 VDD.t116 0<–· sky130_fd_pr__pfet_01v8 ad=0p pd=0u as=0p ps=0u w=2u l=0.15u
X30 a_6149_989.t3 CLK.t3 VDD.t11  sky130_fd_pr__pfet_01v8 ad=0p pd=0u as=0p ps=0u w=2u l=0.15u
X31 a_14869_1051.t1 a_8483_411.t9 VDD.t23 0<–· sky130_fd_pr__pfet_01v8 ad=0p pd=0u as=0p ps=0u w=2u l=0.15u
X32 a_13367_411.t1 a_13241_1050.t6 VDD.t68  sky130_fd_pr__pfet_01v8 ad=0p pd=0u as=0p ps=0u w=2u l=0.15u
X33 VDD.t74 a_6149_989.t8 a_8483_411.t4 0<–· sky130_fd_pr__pfet_01v8 ad=0p pd=0u as=0p ps=0u w=2u l=0.15u
X34 GND a_217_1050.t7 a_757_103.t0 GND sky130_fd_pr__nfet_01v8 ad=0p pd=0u as=0p ps=0u w=0u l=0u
X35 QN a_13367_411.t11 a_16096_101.t0 GND sky130_fd_pr__nfet_01v8 ad=5.373p pd=4.72u as=0p ps=0u w=0u l=0u
X36 VDD.t58 a_13367_411.t10 a_14869_1051.t5  sky130_fd_pr__pfet_01v8 ad=0p pd=0u as=0p ps=0u w=2u l=0.15u
X37 GND D.t3 a_112_101.t0 GND sky130_fd_pr__nfet_01v8 ad=0p pd=0u as=0p ps=0u w=0u l=0u
X38 VDD.t34 CLK.t5 a_343_411.t3 0<–· sky130_fd_pr__pfet_01v8 ad=0p pd=0u as=0p ps=0u w=2u l=0.15u
X39 a_3473_1050.t4 a_343_411.t8 VDD.t14  sky130_fd_pr__pfet_01v8 ad=0p pd=0u as=0p ps=0u w=2u l=0.15u
X40 VDD.t60 a_1905_1050.t7 a_1265_989.t0 0<–· sky130_fd_pr__pfet_01v8 ad=0p pd=0u as=0p ps=0u w=2u l=0.15u
X41 a_8483_411.t6 SN.t2 VDD.t167  sky130_fd_pr__pfet_01v8 ad=0p pd=0u as=0p ps=0u w=2u l=0.15u
X42 VDD.t165 SN.t3 a_13367_411.t4 0<–· sky130_fd_pr__pfet_01v8 ad=0p pd=0u as=0p ps=0u w=2u l=0.15u
X43 a_10111_411.t2 a_9985_1050.t7 VDD.t94  sky130_fd_pr__pfet_01v8 ad=0p pd=0u as=0p ps=0u w=2u l=0.15u
X44 GND a_343_411.t9 a_3368_101.t0 GND sky130_fd_pr__nfet_01v8 ad=0p pd=0u as=0p ps=0u w=0u l=0u
X45 a_15533_1051.t1 a_8483_411.t10 a_14869_1051.t2 0<–· sky130_fd_pr__pfet_01v8 ad=0p pd=0u as=0p ps=0u w=2u l=0.15u
X46 VDD.t62 a_10111_411.t9 a_9985_1050.t0  sky130_fd_pr__pfet_01v8 ad=0p pd=0u as=0p ps=0u w=2u l=0.15u
X47 GND a_8357_1050.t7 a_8897_103.t0 GND sky130_fd_pr__nfet_01v8 ad=0p pd=0u as=0p ps=0u w=0u l=0u
X48 VDD.t163 SN.t4 a_11673_1050.t1 0<–· sky130_fd_pr__pfet_01v8 ad=0p pd=0u as=0p ps=0u w=2u l=0.15u
X49 a_6149_989.t1 a_6789_1050.t8 VDD.t46  sky130_fd_pr__pfet_01v8 ad=0p pd=0u as=0p ps=0u w=2u l=0.15u
X50 VDD.t169 a_3473_1050.t5 a_3599_411.t4 0<–· sky130_fd_pr__pfet_01v8 ad=0p pd=0u as=0p ps=0u w=2u l=0.15u
X51 VDD.t64 a_1265_989.t9 a_3599_411.t0  sky130_fd_pr__pfet_01v8 ad=0p pd=0u as=0p ps=0u w=2u l=0.15u
X52 VDD.t40 a_1265_989.t10 a_343_411.t6 0<–· sky130_fd_pr__pfet_01v8 ad=0p pd=0u as=0p ps=0u w=2u l=0.15u
X53 a_8483_411.t0 a_8357_1050.t6 VDD.t7  sky130_fd_pr__pfet_01v8 ad=0p pd=0u as=0p ps=0u w=2u l=0.15u
X54 VDD.t179 a_11033_989.t9 a_13367_411.t6 0<–· sky130_fd_pr__pfet_01v8 ad=0p pd=0u as=0p ps=0u w=2u l=0.15u
X55 VDD.t134 a_5101_1050.t6 a_5227_411.t4  sky130_fd_pr__pfet_01v8 ad=0p pd=0u as=0p ps=0u w=2u l=0.15u
X56 a_15533_1051.t4 a_3599_411.t10 a_14869_1051.t6 0<–· sky130_fd_pr__pfet_01v8 ad=0p pd=0u as=0p ps=0u w=2u l=0.15u
X57 a_8483_411.t2 a_6149_989.t10 VDD.t32  sky130_fd_pr__pfet_01v8 ad=0p pd=0u as=0p ps=0u w=2u l=0.15u
X58 a_217_1050.t1 D.t4 VDD.t82 0<–· sky130_fd_pr__pfet_01v8 ad=0p pd=0u as=0p ps=0u w=2u l=0.15u
X59 VDD.t137 D.t5 a_9985_1050.t4  sky130_fd_pr__pfet_01v8 ad=0p pd=0u as=0p ps=0u w=2u l=0.15u
X60 a_1905_1050.t4 a_1265_989.t11 VDD.t114 0<–· sky130_fd_pr__pfet_01v8 ad=0p pd=0u as=0p ps=0u w=2u l=0.15u
X61 GND D.t6 a_9880_101.t0 GND sky130_fd_pr__nfet_01v8 ad=0p pd=0u as=0p ps=0u w=0u l=0u
X62 a_6789_1050.t0 a_5101_1050.t7 VDD.t3  sky130_fd_pr__pfet_01v8 ad=0p pd=0u as=0p ps=0u w=2u l=0.15u
X63 VDD.t96 a_9985_1050.t8 a_11673_1050.t3 0<–· sky130_fd_pr__pfet_01v8 ad=0p pd=0u as=0p ps=0u w=2u l=0.15u
X64 GND a_217_1050.t8 a_1719_103.t0 GND sky130_fd_pr__nfet_01v8 ad=0p pd=0u as=0p ps=0u w=0u l=0u
X65 QN.t4 a_13367_411.t12 a_15533_1051.t0  sky130_fd_pr__pfet_01v8 ad=0p pd=0u as=0p ps=0u w=2u l=0.15u
X66 QN a_3599_411.t12 a_15430_101.t0 GND sky130_fd_pr__nfet_01v8 ad=0p pd=0u as=0p ps=0u w=0u l=0u
X67 VDD.t161 SN.t7 a_3599_411.t3 0<–· sky130_fd_pr__pfet_01v8 ad=0p pd=0u as=0p ps=0u w=2u l=0.15u
X68 VDD.t122 SN.t8 a_6789_1050.t5  sky130_fd_pr__pfet_01v8 ad=0p pd=0u as=0p ps=0u w=2u l=0.15u
X69 a_11033_989.t1 a_11673_1050.t9 VDD.t72 0<–· sky130_fd_pr__pfet_01v8 ad=0p pd=0u as=0p ps=0u w=2u l=0.15u
X70 a_1905_1050.t3 SN.t9 VDD.t157  sky130_fd_pr__pfet_01v8 ad=0p pd=0u as=0p ps=0u w=2u l=0.15u
X71 a_5101_1050.t1 a_5227_411.t10 VDD.t52 0<–· sky130_fd_pr__pfet_01v8 ad=0p pd=0u as=0p ps=0u w=2u l=0.15u
X72 a_217_1050.t4 a_343_411.t10 VDD.t173  sky130_fd_pr__pfet_01v8 ad=0p pd=0u as=0p ps=0u w=2u l=0.15u
X73 GND a_10111_411.t12 a_13136_101.t0 GND sky130_fd_pr__nfet_01v8 ad=0p pd=0u as=0p ps=0u w=0u l=0u
X74 GND a_1905_1050.t8 a_2702_101.t0 GND sky130_fd_pr__nfet_01v8 ad=0p pd=0u as=0p ps=0u w=0u l=0u
X75 a_6789_1050.t6 SN.t10 VDD.t155 0<–· sky130_fd_pr__pfet_01v8 ad=0p pd=0u as=0p ps=0u w=2u l=0.15u
X76 QN.t2 a_3599_411.t11 a_15533_1051.t6  sky130_fd_pr__pfet_01v8 ad=0p pd=0u as=0p ps=0u w=2u l=0.15u
X77 VDD.t108 a_9985_1050.t9 a_10111_411.t3 0<–· sky130_fd_pr__pfet_01v8 ad=0p pd=0u as=0p ps=0u w=2u l=0.15u
X78 GND a_13241_1050.t7 a_13781_103.t0 GND sky130_fd_pr__nfet_01v8 ad=0p pd=0u as=0p ps=0u w=0u l=0u
X79 a_343_411.t0 a_217_1050.t9 VDD.t139  sky130_fd_pr__pfet_01v8 ad=0p pd=0u as=0p ps=0u w=2u l=0.15u
X80 VDD.t20 a_8483_411.t12 a_8357_1050.t4 0<–· sky130_fd_pr__pfet_01v8 ad=0p pd=0u as=0p ps=0u w=2u l=0.15u
X81 GND a_5227_411.t12 a_8252_101.t0 GND sky130_fd_pr__nfet_01v8 ad=0p pd=0u as=0p ps=0u w=0u l=0u
X82 VDD.t88 a_6149_989.t12 a_6789_1050.t3  sky130_fd_pr__pfet_01v8 ad=0p pd=0u as=0p ps=0u w=2u l=0.15u
X83 GND a_5101_1050.t8 a_5641_103.t0 GND sky130_fd_pr__nfet_01v8 ad=0p pd=0u as=0p ps=0u w=0u l=0u
X84 VDD.t184 a_10111_411.t11 a_13241_1050.t0 0<–· sky130_fd_pr__pfet_01v8 ad=0p pd=0u as=0p ps=0u w=2u l=0.15u
X85 a_10111_411.t4 a_11033_989.t11 VDD.t141  sky130_fd_pr__pfet_01v8 ad=0p pd=0u as=0p ps=0u w=2u l=0.15u
X86 VDD.t118 a_217_1050.t10 a_1905_1050.t0 0<–· sky130_fd_pr__pfet_01v8 ad=0p pd=0u as=0p ps=0u w=2u l=0.15u
X87 a_8357_1050.t3 a_5227_411.t11 VDD.t188  sky130_fd_pr__pfet_01v8 ad=0p pd=0u as=0p ps=0u w=2u l=0.15u
X88 VDD.t195 a_6789_1050.t9 a_6149_989.t0 0<–· sky130_fd_pr__pfet_01v8 ad=0p pd=0u as=0p ps=0u w=2u l=0.15u
X89 a_11033_989.t3 CLK.t8 VDD.t50  sky130_fd_pr__pfet_01v8 ad=0p pd=0u as=0p ps=0u w=2u l=0.15u
X90 GND a_8483_411.t15 a_14764_101.t0 GND sky130_fd_pr__nfet_01v8 ad=0p pd=0u as=0p ps=0u w=0u l=0u
X91 a_5101_1050.t3 D.t7 VDD.t27 0<–· sky130_fd_pr__pfet_01v8 ad=0p pd=0u as=0p ps=0u w=2u l=0.15u
X92 a_343_411.t2 CLK.t10 VDD.t102  sky130_fd_pr__pfet_01v8 ad=0p pd=0u as=0p ps=0u w=2u l=0.15u
X93 a_14869_1051.t4 a_13367_411.t13 VDD.t29 0<–· sky130_fd_pr__pfet_01v8 ad=0p pd=0u as=0p ps=0u w=2u l=0.15u
X94 a_9985_1050.t3 D.t8 VDD.t38  sky130_fd_pr__pfet_01v8 ad=0p pd=0u as=0p ps=0u w=2u l=0.15u
X95 a_13367_411.t3 SN.t12 VDD.t153 0<–· sky130_fd_pr__pfet_01v8 ad=0p pd=0u as=0p ps=0u w=2u l=0.15u
X96 a_1265_989.t1 a_1905_1050.t9 VDD.t120  sky130_fd_pr__pfet_01v8 ad=0p pd=0u as=0p ps=0u w=2u l=0.15u
X97 VDD.t106 a_3599_411.t13 a_3473_1050.t0 0<–· sky130_fd_pr__pfet_01v8 ad=0p pd=0u as=0p ps=0u w=2u l=0.15u
X98 VDD.t181 CLK.t11 a_10111_411.t5  sky130_fd_pr__pfet_01v8 ad=0p pd=0u as=0p ps=0u w=2u l=0.15u
X99 a_11673_1050.t0 SN.t13 VDD.t151 0<–· sky130_fd_pr__pfet_01v8 ad=0p pd=0u as=0p ps=0u w=2u l=0.15u
X100 VDD.t126 CLK.t12 a_1265_989.t3  sky130_fd_pr__pfet_01v8 ad=0p pd=0u as=0p ps=0u w=2u l=0.15u
X101 GND a_5101_1050.t10 a_6603_103.t0 GND sky130_fd_pr__nfet_01v8 ad=0p pd=0u as=0p ps=0u w=0u l=0u
X102 VDD.t86 a_6149_989.t13 a_5227_411.t1 0<–· sky130_fd_pr__pfet_01v8 ad=0p pd=0u as=0p ps=0u w=2u l=0.15u
X103 VDD.t143 a_13367_411.t14 a_13241_1050.t3  sky130_fd_pr__pfet_01v8 ad=0p pd=0u as=0p ps=0u w=2u l=0.15u
X104 a_8357_1050.t0 a_8483_411.t13 VDD.t18 0<–· sky130_fd_pr__pfet_01v8 ad=0p pd=0u as=0p ps=0u w=2u l=0.15u
X105 a_3599_411.t6 a_3473_1050.t6 VDD.t193  sky130_fd_pr__pfet_01v8 ad=0p pd=0u as=0p ps=0u w=2u l=0.15u
X106 VDD.t78 CLK.t13 a_6149_989.t2 0<–· sky130_fd_pr__pfet_01v8 ad=0p pd=0u as=0p ps=0u w=2u l=0.15u
X107 GND a_3473_1050.t7 a_4013_103.t0 GND sky130_fd_pr__nfet_01v8 ad=0p pd=0u as=0p ps=0u w=0u l=0u
X108 VDD.t16 a_8483_411.t14 a_14869_1051.t0  sky130_fd_pr__pfet_01v8 ad=0p pd=0u as=0p ps=0u w=2u l=0.15u
X109 QN a_13367_411.t15 a_14764_101.t1 GND sky130_fd_pr__nfet_01v8 ad=0p pd=0u as=0p ps=0u w=0u l=0u
X110 a_343_411.t5 a_1265_989.t13 VDD.t92 0<–· sky130_fd_pr__pfet_01v8 ad=0p pd=0u as=0p ps=0u w=2u l=0.15u
X111 VDD.t171 a_343_411.t12 a_3473_1050.t3  sky130_fd_pr__pfet_01v8 ad=0p pd=0u as=0p ps=0u w=2u l=0.15u
X112 a_5227_411.t3 a_5101_1050.t9 VDD.t124 0<–· sky130_fd_pr__pfet_01v8 ad=0p pd=0u as=0p ps=0u w=2u l=0.15u
X113 a_13367_411.t0 a_11033_989.t13 VDD.t42  sky130_fd_pr__pfet_01v8 ad=0p pd=0u as=0p ps=0u w=2u l=0.15u
X114 VDD.t149 SN.t15 a_8483_411.t5 0<–· sky130_fd_pr__pfet_01v8 ad=0p pd=0u as=0p ps=0u w=2u l=0.15u
X115 GND a_6789_1050.t7 a_7586_101.t0 GND sky130_fd_pr__nfet_01v8 ad=0p pd=0u as=0p ps=0u w=0u l=0u
X116 a_1265_989.t2 CLK.t14 VDD.t100  sky130_fd_pr__pfet_01v8 ad=0p pd=0u as=0p ps=0u w=2u l=0.15u
X117 VDD.t147 SN.t16 a_1905_1050.t2 0<–· sky130_fd_pr__pfet_01v8 ad=0p pd=0u as=0p ps=0u w=2u l=0.15u
X118 GND a_9985_1050.t5 a_10525_103.t0 GND sky130_fd_pr__nfet_01v8 ad=0p pd=0u as=0p ps=0u w=0u l=0u
X119 GND a_3599_411.t8 a_16096_101.t0 GND sky130_fd_pr__nfet_01v8 ad=0p pd=0u as=0p ps=0u w=0u l=0u
X120 GND D.t2 a_4996_101.t0 GND sky130_fd_pr__nfet_01v8 ad=0p pd=0u as=0p ps=0u w=0u l=0u
X121 a_11673_1050.t2 a_9985_1050.t10 VDD.t175  sky130_fd_pr__pfet_01v8 ad=0p pd=0u as=0p ps=0u w=2u l=0.15u
X122 VDD.t186 CLK.t15 a_5227_411.t5 0<–· sky130_fd_pr__pfet_01v8 ad=0p pd=0u as=0p ps=0u w=2u l=0.15u
X123 a_15533_1051.t7 a_3599_411.t15 QN.t1  sky130_fd_pr__pfet_01v8 ad=0p pd=0u as=0p ps=0u w=2u l=0.15u
X124 a_3599_411.t2 SN.t17 VDD.t145 0<–· sky130_fd_pr__pfet_01v8 ad=0p pd=0u as=0p ps=0u w=2u l=0.15u
X125 VDD.t98 CLK.t17 a_11033_989.t2  sky130_fd_pr__pfet_01v8 ad=0p pd=0u as=0p ps=0u w=2u l=0.15u
C0 CLK SN 0.46fF
C1 QN VDD 0.73fF
C2 VDD D 0.95fF
C3 VDD CLK 7.98fF
C4 D CLK 0.39fF
C5 VDD SN 1.76fF
C6 D SN 9.38fF
R0 a_8357_1050.n3 a_8357_1050.t5 512.525
R1 a_8357_1050.n4 a_8357_1050.t7 417.109
R2 a_8357_1050.n3 a_8357_1050.t6 371.139
R3 a_8357_1050.n7 a_8357_1050.n5 367.82
R4 a_8357_1050.n4 a_8357_1050.n3 179.837
R5 a_8357_1050.n2 a_8357_1050.n1 157.964
R6 a_8357_1050.n5 a_8357_1050.n2 104.282
R7 a_8357_1050.n2 a_8357_1050.n0 91.706
R8 a_8357_1050.n7 a_8357_1050.n6 15.218
R9 a_8357_1050.n0 a_8357_1050.t4 14.282
R10 a_8357_1050.n0 a_8357_1050.t0 14.282
R11 a_8357_1050.n1 a_8357_1050.t1 14.282
R12 a_8357_1050.n1 a_8357_1050.t3 14.282
R13 a_8357_1050.n8 a_8357_1050.n7 12.014
R14 a_8357_1050.n5 a_8357_1050.n4 10.615
R15 a_8483_411.n8 a_8483_411.t14 512.525
R16 a_8483_411.n6 a_8483_411.t8 477.179
R17 a_8483_411.n11 a_8483_411.t12 472.359
R18 a_8483_411.n7 a_8483_411.t11 440.954
R19 a_8483_411.n6 a_8483_411.t10 406.485
R20 a_8483_411.n11 a_8483_411.t13 384.527
R21 a_8483_411.n8 a_8483_411.t9 371.139
R22 a_8483_411.n10 a_8483_411.t15 350.777
R23 a_8483_411.n12 a_8483_411.t7 314.896
R24 a_8483_411.n16 a_8483_411.n14 308.216
R25 a_8483_411.n12 a_8483_411.n11 182.814
R26 a_8483_411.n14 a_8483_411.n5 179.199
R27 a_8483_411.n4 a_8483_411.n3 161.352
R28 a_8483_411.n5 a_8483_411.n1 95.095
R29 a_8483_411.n4 a_8483_411.n2 95.095
R30 a_8483_411.n10 a_8483_411.n9 83.75
R31 a_8483_411.n9 a_8483_411.n8 77.972
R32 a_8483_411.n5 a_8483_411.n4 66.258
R33 a_8483_411.n17 a_8483_411.n0 55.263
R34 a_8483_411.n16 a_8483_411.n15 30
R35 a_8483_411.n17 a_8483_411.n16 23.684
R36 a_8483_411.n13 a_8483_411.n10 23.649
R37 a_8483_411.n7 a_8483_411.n6 21.4
R38 a_8483_411.n1 a_8483_411.t4 14.282
R39 a_8483_411.n1 a_8483_411.t2 14.282
R40 a_8483_411.n2 a_8483_411.t5 14.282
R41 a_8483_411.n2 a_8483_411.t6 14.282
R42 a_8483_411.n3 a_8483_411.t1 14.282
R43 a_8483_411.n3 a_8483_411.t0 14.282
R44 a_8483_411.n13 a_8483_411.n12 8.685
R45 a_8483_411.n9 a_8483_411.n7 6.833
R46 a_8483_411.n14 a_8483_411.n13 4.65
R47 VDD.n759 VDD.n748 144.705
R48 VDD.n834 VDD.n827 144.705
R49 VDD.n909 VDD.n902 144.705
R50 VDD.n966 VDD.n959 144.705
R51 VDD.n1023 VDD.n1016 144.705
R52 VDD.n1098 VDD.n1091 144.705
R53 VDD.n1155 VDD.n1148 144.705
R54 VDD.n1230 VDD.n1223 144.705
R55 VDD.n1305 VDD.n1298 144.705
R56 VDD.n656 VDD.n649 144.705
R57 VDD.n1362 VDD.n1355 144.705
R58 VDD.n581 VDD.n574 144.705
R59 VDD.n524 VDD.n517 144.705
R60 VDD.n449 VDD.n442 144.705
R61 VDD.n374 VDD.n367 144.705
R62 VDD.n317 VDD.n310 144.705
R63 VDD.n260 VDD.n253 144.705
R64 VDD.n185 VDD.n178 144.705
R65 VDD.n128 VDD.n121 144.705
R66 VDD.n75 VDD.n64 144.705
R67 VDD.n801 VDD.t40 143.754
R68 VDD.n876 VDD.t130 143.754
R69 VDD.n1065 VDD.t64 143.754
R70 VDD.n1197 VDD.t86 143.754
R71 VDD.n1272 VDD.t88 143.754
R72 VDD.n590 VDD.t74 143.754
R73 VDD.n458 VDD.t76 143.754
R74 VDD.n383 VDD.t177 143.754
R75 VDD.n194 VDD.t179 143.754
R76 VDD.n726 VDD.t5 143.754
R77 VDD.n934 VDD.t126 143.754
R78 VDD.n991 VDD.t106 143.754
R79 VDD.n1123 VDD.t54 143.754
R80 VDD.n1330 VDD.t78 143.754
R81 VDD.n659 VDD.t20 143.754
R82 VDD.n527 VDD.t62 143.754
R83 VDD.n320 VDD.t98 143.754
R84 VDD.n263 VDD.t143 143.754
R85 VDD.n153 VDD.t23 135.539
R86 VDD.n131 VDD.t58 135.539
R87 VDD.n704 VDD.t82 135.17
R88 VDD.n766 VDD.t139 135.17
R89 VDD.n841 VDD.t84 135.17
R90 VDD.n912 VDD.t120 135.17
R91 VDD.n969 VDD.t14 135.17
R92 VDD.n1030 VDD.t193 135.17
R93 VDD.n1101 VDD.t27 135.17
R94 VDD.n1162 VDD.t124 135.17
R95 VDD.n1237 VDD.t3 135.17
R96 VDD.n1308 VDD.t46 135.17
R97 VDD.n1365 VDD.t188 135.17
R98 VDD.n620 VDD.t7 135.17
R99 VDD.n549 VDD.t38 135.17
R100 VDD.n488 VDD.t94 135.17
R101 VDD.n413 VDD.t175 135.17
R102 VDD.n342 VDD.t72 135.17
R103 VDD.n285 VDD.t191 135.17
R104 VDD.n224 VDD.t68 135.17
R105 VDD.n141 VDD.n140 129.849
R106 VDD.n718 VDD.n717 129.472
R107 VDD.n776 VDD.n775 129.472
R108 VDD.n792 VDD.n791 129.472
R109 VDD.n851 VDD.n850 129.472
R110 VDD.n867 VDD.n866 129.472
R111 VDD.n926 VDD.n925 129.472
R112 VDD.n983 VDD.n982 129.472
R113 VDD.n1040 VDD.n1039 129.472
R114 VDD.n1056 VDD.n1055 129.472
R115 VDD.n1115 VDD.n1114 129.472
R116 VDD.n1172 VDD.n1171 129.472
R117 VDD.n1188 VDD.n1187 129.472
R118 VDD.n1247 VDD.n1246 129.472
R119 VDD.n1263 VDD.n1262 129.472
R120 VDD.n1322 VDD.n1321 129.472
R121 VDD.n669 VDD.n668 129.472
R122 VDD.n611 VDD.n610 129.472
R123 VDD.n599 VDD.n598 129.472
R124 VDD.n537 VDD.n536 129.472
R125 VDD.n479 VDD.n478 129.472
R126 VDD.n467 VDD.n466 129.472
R127 VDD.n404 VDD.n403 129.472
R128 VDD.n392 VDD.n391 129.472
R129 VDD.n330 VDD.n329 129.472
R130 VDD.n273 VDD.n272 129.472
R131 VDD.n215 VDD.n214 129.472
R132 VDD.n203 VDD.n202 129.472
R133 VDD.n60 VDD.n59 92.5
R134 VDD.n58 VDD.n57 92.5
R135 VDD.n56 VDD.n55 92.5
R136 VDD.n54 VDD.n53 92.5
R137 VDD.n62 VDD.n61 92.5
R138 VDD.n117 VDD.n116 92.5
R139 VDD.n115 VDD.n114 92.5
R140 VDD.n113 VDD.n112 92.5
R141 VDD.n111 VDD.n110 92.5
R142 VDD.n119 VDD.n118 92.5
R143 VDD.n174 VDD.n173 92.5
R144 VDD.n172 VDD.n171 92.5
R145 VDD.n170 VDD.n169 92.5
R146 VDD.n168 VDD.n167 92.5
R147 VDD.n176 VDD.n175 92.5
R148 VDD.n249 VDD.n248 92.5
R149 VDD.n247 VDD.n246 92.5
R150 VDD.n245 VDD.n244 92.5
R151 VDD.n243 VDD.n242 92.5
R152 VDD.n251 VDD.n250 92.5
R153 VDD.n306 VDD.n305 92.5
R154 VDD.n304 VDD.n303 92.5
R155 VDD.n302 VDD.n301 92.5
R156 VDD.n300 VDD.n299 92.5
R157 VDD.n308 VDD.n307 92.5
R158 VDD.n363 VDD.n362 92.5
R159 VDD.n361 VDD.n360 92.5
R160 VDD.n359 VDD.n358 92.5
R161 VDD.n357 VDD.n356 92.5
R162 VDD.n365 VDD.n364 92.5
R163 VDD.n438 VDD.n437 92.5
R164 VDD.n436 VDD.n435 92.5
R165 VDD.n434 VDD.n433 92.5
R166 VDD.n432 VDD.n431 92.5
R167 VDD.n440 VDD.n439 92.5
R168 VDD.n513 VDD.n512 92.5
R169 VDD.n511 VDD.n510 92.5
R170 VDD.n509 VDD.n508 92.5
R171 VDD.n507 VDD.n506 92.5
R172 VDD.n515 VDD.n514 92.5
R173 VDD.n570 VDD.n569 92.5
R174 VDD.n568 VDD.n567 92.5
R175 VDD.n566 VDD.n565 92.5
R176 VDD.n564 VDD.n563 92.5
R177 VDD.n572 VDD.n571 92.5
R178 VDD.n645 VDD.n644 92.5
R179 VDD.n643 VDD.n642 92.5
R180 VDD.n641 VDD.n640 92.5
R181 VDD.n639 VDD.n638 92.5
R182 VDD.n647 VDD.n646 92.5
R183 VDD.n1351 VDD.n1350 92.5
R184 VDD.n1349 VDD.n1348 92.5
R185 VDD.n1347 VDD.n1346 92.5
R186 VDD.n1345 VDD.n1344 92.5
R187 VDD.n1353 VDD.n1352 92.5
R188 VDD.n1294 VDD.n1293 92.5
R189 VDD.n1292 VDD.n1291 92.5
R190 VDD.n1290 VDD.n1289 92.5
R191 VDD.n1288 VDD.n1287 92.5
R192 VDD.n1296 VDD.n1295 92.5
R193 VDD.n1219 VDD.n1218 92.5
R194 VDD.n1217 VDD.n1216 92.5
R195 VDD.n1215 VDD.n1214 92.5
R196 VDD.n1213 VDD.n1212 92.5
R197 VDD.n1221 VDD.n1220 92.5
R198 VDD.n1144 VDD.n1143 92.5
R199 VDD.n1142 VDD.n1141 92.5
R200 VDD.n1140 VDD.n1139 92.5
R201 VDD.n1138 VDD.n1137 92.5
R202 VDD.n1146 VDD.n1145 92.5
R203 VDD.n1087 VDD.n1086 92.5
R204 VDD.n1085 VDD.n1084 92.5
R205 VDD.n1083 VDD.n1082 92.5
R206 VDD.n1081 VDD.n1080 92.5
R207 VDD.n1089 VDD.n1088 92.5
R208 VDD.n1012 VDD.n1011 92.5
R209 VDD.n1010 VDD.n1009 92.5
R210 VDD.n1008 VDD.n1007 92.5
R211 VDD.n1006 VDD.n1005 92.5
R212 VDD.n1014 VDD.n1013 92.5
R213 VDD.n955 VDD.n954 92.5
R214 VDD.n953 VDD.n952 92.5
R215 VDD.n951 VDD.n950 92.5
R216 VDD.n949 VDD.n948 92.5
R217 VDD.n957 VDD.n956 92.5
R218 VDD.n898 VDD.n897 92.5
R219 VDD.n896 VDD.n895 92.5
R220 VDD.n894 VDD.n893 92.5
R221 VDD.n892 VDD.n891 92.5
R222 VDD.n900 VDD.n899 92.5
R223 VDD.n823 VDD.n822 92.5
R224 VDD.n821 VDD.n820 92.5
R225 VDD.n819 VDD.n818 92.5
R226 VDD.n817 VDD.n816 92.5
R227 VDD.n825 VDD.n824 92.5
R228 VDD.n744 VDD.n743 92.5
R229 VDD.n742 VDD.n741 92.5
R230 VDD.n740 VDD.n739 92.5
R231 VDD.n738 VDD.n737 92.5
R232 VDD.n746 VDD.n745 92.5
R233 VDD.n692 VDD.n691 92.5
R234 VDD.n690 VDD.n689 92.5
R235 VDD.n688 VDD.n687 92.5
R236 VDD.n686 VDD.n685 92.5
R237 VDD.n694 VDD.n693 92.5
R238 VDD.n14 VDD.n1 92.5
R239 VDD.n5 VDD.n4 92.5
R240 VDD.n7 VDD.n6 92.5
R241 VDD.n9 VDD.n8 92.5
R242 VDD.n11 VDD.n10 92.5
R243 VDD.n13 VDD.n12 92.5
R244 VDD.n21 VDD.n20 92.059
R245 VDD.n74 VDD.n73 92.059
R246 VDD.n127 VDD.n126 92.059
R247 VDD.n184 VDD.n183 92.059
R248 VDD.n259 VDD.n258 92.059
R249 VDD.n316 VDD.n315 92.059
R250 VDD.n373 VDD.n372 92.059
R251 VDD.n448 VDD.n447 92.059
R252 VDD.n523 VDD.n522 92.059
R253 VDD.n580 VDD.n579 92.059
R254 VDD.n655 VDD.n654 92.059
R255 VDD.n1361 VDD.n1360 92.059
R256 VDD.n1304 VDD.n1303 92.059
R257 VDD.n1229 VDD.n1228 92.059
R258 VDD.n1154 VDD.n1153 92.059
R259 VDD.n1097 VDD.n1096 92.059
R260 VDD.n1022 VDD.n1021 92.059
R261 VDD.n965 VDD.n964 92.059
R262 VDD.n908 VDD.n907 92.059
R263 VDD.n833 VDD.n832 92.059
R264 VDD.n758 VDD.n757 92.059
R265 VDD.n700 VDD.n699 92.059
R266 VDD.n20 VDD.n16 67.194
R267 VDD.n20 VDD.n17 67.194
R268 VDD.n20 VDD.n18 67.194
R269 VDD.n20 VDD.n19 67.194
R270 VDD.n684 VDD.n683 44.141
R271 VDD.n815 VDD.n814 44.141
R272 VDD.n890 VDD.n889 44.141
R273 VDD.n947 VDD.n946 44.141
R274 VDD.n1004 VDD.n1003 44.141
R275 VDD.n1079 VDD.n1078 44.141
R276 VDD.n1136 VDD.n1135 44.141
R277 VDD.n1211 VDD.n1210 44.141
R278 VDD.n1286 VDD.n1285 44.141
R279 VDD.n1343 VDD.n1342 44.141
R280 VDD.n637 VDD.n636 44.141
R281 VDD.n562 VDD.n561 44.141
R282 VDD.n505 VDD.n504 44.141
R283 VDD.n430 VDD.n429 44.141
R284 VDD.n355 VDD.n354 44.141
R285 VDD.n298 VDD.n297 44.141
R286 VDD.n241 VDD.n240 44.141
R287 VDD.n166 VDD.n165 44.141
R288 VDD.n109 VDD.n108 44.141
R289 VDD.n5 VDD.n3 44.141
R290 VDD.n814 VDD.n812 44.107
R291 VDD.n889 VDD.n887 44.107
R292 VDD.n946 VDD.n944 44.107
R293 VDD.n1003 VDD.n1001 44.107
R294 VDD.n1078 VDD.n1076 44.107
R295 VDD.n1135 VDD.n1133 44.107
R296 VDD.n1210 VDD.n1208 44.107
R297 VDD.n1285 VDD.n1283 44.107
R298 VDD.n1342 VDD.n1340 44.107
R299 VDD.n636 VDD.n634 44.107
R300 VDD.n561 VDD.n559 44.107
R301 VDD.n504 VDD.n502 44.107
R302 VDD.n429 VDD.n427 44.107
R303 VDD.n354 VDD.n352 44.107
R304 VDD.n297 VDD.n295 44.107
R305 VDD.n240 VDD.n238 44.107
R306 VDD.n165 VDD.n163 44.107
R307 VDD.n108 VDD.n106 44.107
R308 VDD.n683 VDD.n681 44.107
R309 VDD.n3 VDD.n2 44.107
R310 VDD.n20 VDD.n15 41.052
R311 VDD.n68 VDD.n66 39.742
R312 VDD.n68 VDD.n67 39.742
R313 VDD.n70 VDD.n69 39.742
R314 VDD.n123 VDD.n122 39.742
R315 VDD.n180 VDD.n179 39.742
R316 VDD.n255 VDD.n254 39.742
R317 VDD.n312 VDD.n311 39.742
R318 VDD.n369 VDD.n368 39.742
R319 VDD.n444 VDD.n443 39.742
R320 VDD.n519 VDD.n518 39.742
R321 VDD.n576 VDD.n575 39.742
R322 VDD.n651 VDD.n650 39.742
R323 VDD.n1357 VDD.n1356 39.742
R324 VDD.n1300 VDD.n1299 39.742
R325 VDD.n1225 VDD.n1224 39.742
R326 VDD.n1150 VDD.n1149 39.742
R327 VDD.n1093 VDD.n1092 39.742
R328 VDD.n1018 VDD.n1017 39.742
R329 VDD.n961 VDD.n960 39.742
R330 VDD.n904 VDD.n903 39.742
R331 VDD.n829 VDD.n828 39.742
R332 VDD.n696 VDD.n695 39.742
R333 VDD.n756 VDD.n753 39.742
R334 VDD.n756 VDD.n755 39.742
R335 VDD.n752 VDD.n751 39.742
R336 VDD.n108 VDD.n107 38
R337 VDD.n165 VDD.n164 38
R338 VDD.n240 VDD.n239 38
R339 VDD.n297 VDD.n296 38
R340 VDD.n354 VDD.n353 38
R341 VDD.n429 VDD.n428 38
R342 VDD.n504 VDD.n503 38
R343 VDD.n561 VDD.n560 38
R344 VDD.n636 VDD.n635 38
R345 VDD.n1342 VDD.n1341 38
R346 VDD.n1285 VDD.n1284 38
R347 VDD.n1210 VDD.n1209 38
R348 VDD.n1135 VDD.n1134 38
R349 VDD.n1078 VDD.n1077 38
R350 VDD.n1003 VDD.n1002 38
R351 VDD.n946 VDD.n945 38
R352 VDD.n889 VDD.n888 38
R353 VDD.n814 VDD.n813 38
R354 VDD.n683 VDD.n682 38
R355 VDD.n812 VDD.n811 36.774
R356 VDD.n887 VDD.n886 36.774
R357 VDD.n944 VDD.n943 36.774
R358 VDD.n1001 VDD.n1000 36.774
R359 VDD.n1076 VDD.n1075 36.774
R360 VDD.n1133 VDD.n1132 36.774
R361 VDD.n1208 VDD.n1207 36.774
R362 VDD.n1283 VDD.n1282 36.774
R363 VDD.n1340 VDD.n1339 36.774
R364 VDD.n634 VDD.n633 36.774
R365 VDD.n559 VDD.n558 36.774
R366 VDD.n502 VDD.n501 36.774
R367 VDD.n427 VDD.n426 36.774
R368 VDD.n352 VDD.n351 36.774
R369 VDD.n295 VDD.n294 36.774
R370 VDD.n238 VDD.n237 36.774
R371 VDD.n163 VDD.n162 36.774
R372 VDD.n106 VDD.n105 36.774
R373 VDD.n66 VDD.n65 36.774
R374 VDD.n755 VDD.n754 36.774
R375 VDD.n196 0<–· 35.8
R376 VDD.n385 0<–· 35.8
R377 VDD.n460 0<–· 35.8
R378 VDD.n592 0<–· 35.8
R379 VDD.n1266  35.8
R380 VDD.n1191 0<–· 35.8
R381 VDD.n1059  35.8
R382 VDD.n870  35.8
R383 VDD.n795 0<–· 35.8
R384 VDD.n220  33.243
R385 VDD.n409  33.243
R386 VDD.n484  33.243
R387 VDD.n616  33.243
R388 VDD.n1242  33.243
R389 VDD.n1167 0<–· 33.243
R390 VDD.n1035  33.243
R391 VDD.n846  33.243
R392 VDD.n771  33.243
R393 VDD.n1 VDD.n0 30.923
R394 VDD.n73 VDD.n71 26.38
R395 VDD.n73 VDD.n70 26.38
R396 VDD.n73 VDD.n68 26.38
R397 VDD.n73 VDD.n72 26.38
R398 VDD.n126 VDD.n124 26.38
R399 VDD.n126 VDD.n123 26.38
R400 VDD.n126 VDD.n125 26.38
R401 VDD.n183 VDD.n181 26.38
R402 VDD.n183 VDD.n180 26.38
R403 VDD.n183 VDD.n182 26.38
R404 VDD.n258 VDD.n256 26.38
R405 VDD.n258 VDD.n255 26.38
R406 VDD.n258 VDD.n257 26.38
R407 VDD.n315 VDD.n313 26.38
R408 VDD.n315 VDD.n312 26.38
R409 VDD.n315 VDD.n314 26.38
R410 VDD.n372 VDD.n370 26.38
R411 VDD.n372 VDD.n369 26.38
R412 VDD.n372 VDD.n371 26.38
R413 VDD.n447 VDD.n445 26.38
R414 VDD.n447 VDD.n444 26.38
R415 VDD.n447 VDD.n446 26.38
R416 VDD.n522 VDD.n520 26.38
R417 VDD.n522 VDD.n519 26.38
R418 VDD.n522 VDD.n521 26.38
R419 VDD.n579 VDD.n577 26.38
R420 VDD.n579 VDD.n576 26.38
R421 VDD.n579 VDD.n578 26.38
R422 VDD.n654 VDD.n652 26.38
R423 VDD.n654 VDD.n651 26.38
R424 VDD.n654 VDD.n653 26.38
R425 VDD.n1360 VDD.n1358 26.38
R426 VDD.n1360 VDD.n1357 26.38
R427 VDD.n1360 VDD.n1359 26.38
R428 VDD.n1303 VDD.n1301 26.38
R429 VDD.n1303 VDD.n1300 26.38
R430 VDD.n1303 VDD.n1302 26.38
R431 VDD.n1228 VDD.n1226 26.38
R432 VDD.n1228 VDD.n1225 26.38
R433 VDD.n1228 VDD.n1227 26.38
R434 VDD.n1153 VDD.n1151 26.38
R435 VDD.n1153 VDD.n1150 26.38
R436 VDD.n1153 VDD.n1152 26.38
R437 VDD.n1096 VDD.n1094 26.38
R438 VDD.n1096 VDD.n1093 26.38
R439 VDD.n1096 VDD.n1095 26.38
R440 VDD.n1021 VDD.n1019 26.38
R441 VDD.n1021 VDD.n1018 26.38
R442 VDD.n1021 VDD.n1020 26.38
R443 VDD.n964 VDD.n962 26.38
R444 VDD.n964 VDD.n961 26.38
R445 VDD.n964 VDD.n963 26.38
R446 VDD.n907 VDD.n905 26.38
R447 VDD.n907 VDD.n904 26.38
R448 VDD.n907 VDD.n906 26.38
R449 VDD.n832 VDD.n830 26.38
R450 VDD.n832 VDD.n829 26.38
R451 VDD.n832 VDD.n831 26.38
R452 VDD.n699 VDD.n697 26.38
R453 VDD.n699 VDD.n696 26.38
R454 VDD.n699 VDD.n698 26.38
R455 VDD.n757 VDD.n756 26.38
R456 VDD.n757 VDD.n752 26.38
R457 VDD.n757 VDD.n750 26.38
R458 VDD.n757 VDD.n749 26.38
R459 VDD.n702 VDD.n694 22.915
R460 VDD.n23 VDD.n14 22.915
R461 VDD.n28 0<–· 20.457
R462 VDD.n93 0<–· 20.457
R463 VDD.n136  20.457
R464 VDD.n268  20.457
R465 VDD.n325  20.457
R466 VDD.n532  20.457
R467 VDD.n664 0<–· 20.457
R468 VDD.n1326 0<–· 20.457
R469 VDD.n1119  20.457
R470 VDD.n987 0<–· 20.457
R471 VDD.n930  20.457
R472 VDD.n722 0<–· 20.457
R473 VDD.n39  17.9
R474 VDD.n82  17.9
R475 VDD.n149 0<–· 17.9
R476 VDD.n281 0<–· 17.9
R477 VDD.n338 0<–· 17.9
R478 VDD.n545  17.9
R479 VDD.n677  17.9
R480 VDD.n1313  17.9
R481 VDD.n1106 0<–· 17.9
R482 VDD.n974  17.9
R483 VDD.n917  17.9
R484 VDD.n709 0<–· 17.9
R485 VDD.n200  15.343
R486 VDD.n389 0<–· 15.343
R487 VDD.n464  15.343
R488 VDD.n596  15.343
R489 VDD.n1260  15.343
R490 VDD.n1185  15.343
R491 VDD.n1053  15.343
R492 VDD.n864 0<–· 15.343
R493 VDD.n789 0<–· 15.343
R494 VDD.n694 VDD.n692 14.864
R495 VDD.n692 VDD.n690 14.864
R496 VDD.n690 VDD.n688 14.864
R497 VDD.n688 VDD.n686 14.864
R498 VDD.n686 VDD.n684 14.864
R499 VDD.n825 VDD.n823 14.864
R500 VDD.n823 VDD.n821 14.864
R501 VDD.n821 VDD.n819 14.864
R502 VDD.n819 VDD.n817 14.864
R503 VDD.n817 VDD.n815 14.864
R504 VDD.n900 VDD.n898 14.864
R505 VDD.n898 VDD.n896 14.864
R506 VDD.n896 VDD.n894 14.864
R507 VDD.n894 VDD.n892 14.864
R508 VDD.n892 VDD.n890 14.864
R509 VDD.n957 VDD.n955 14.864
R510 VDD.n955 VDD.n953 14.864
R511 VDD.n953 VDD.n951 14.864
R512 VDD.n951 VDD.n949 14.864
R513 VDD.n949 VDD.n947 14.864
R514 VDD.n1014 VDD.n1012 14.864
R515 VDD.n1012 VDD.n1010 14.864
R516 VDD.n1010 VDD.n1008 14.864
R517 VDD.n1008 VDD.n1006 14.864
R518 VDD.n1006 VDD.n1004 14.864
R519 VDD.n1089 VDD.n1087 14.864
R520 VDD.n1087 VDD.n1085 14.864
R521 VDD.n1085 VDD.n1083 14.864
R522 VDD.n1083 VDD.n1081 14.864
R523 VDD.n1081 VDD.n1079 14.864
R524 VDD.n1146 VDD.n1144 14.864
R525 VDD.n1144 VDD.n1142 14.864
R526 VDD.n1142 VDD.n1140 14.864
R527 VDD.n1140 VDD.n1138 14.864
R528 VDD.n1138 VDD.n1136 14.864
R529 VDD.n1221 VDD.n1219 14.864
R530 VDD.n1219 VDD.n1217 14.864
R531 VDD.n1217 VDD.n1215 14.864
R532 VDD.n1215 VDD.n1213 14.864
R533 VDD.n1213 VDD.n1211 14.864
R534 VDD.n1296 VDD.n1294 14.864
R535 VDD.n1294 VDD.n1292 14.864
R536 VDD.n1292 VDD.n1290 14.864
R537 VDD.n1290 VDD.n1288 14.864
R538 VDD.n1288 VDD.n1286 14.864
R539 VDD.n1353 VDD.n1351 14.864
R540 VDD.n1351 VDD.n1349 14.864
R541 VDD.n1349 VDD.n1347 14.864
R542 VDD.n1347 VDD.n1345 14.864
R543 VDD.n1345 VDD.n1343 14.864
R544 VDD.n647 VDD.n645 14.864
R545 VDD.n645 VDD.n643 14.864
R546 VDD.n643 VDD.n641 14.864
R547 VDD.n641 VDD.n639 14.864
R548 VDD.n639 VDD.n637 14.864
R549 VDD.n572 VDD.n570 14.864
R550 VDD.n570 VDD.n568 14.864
R551 VDD.n568 VDD.n566 14.864
R552 VDD.n566 VDD.n564 14.864
R553 VDD.n564 VDD.n562 14.864
R554 VDD.n515 VDD.n513 14.864
R555 VDD.n513 VDD.n511 14.864
R556 VDD.n511 VDD.n509 14.864
R557 VDD.n509 VDD.n507 14.864
R558 VDD.n507 VDD.n505 14.864