* SPICE3 file created from TMRDFFRNQNX1.ext - technology: sky130A

.subckt TMRDFFRNQNX1 QN D CLK RN VDD GND
X0 VDD.t145 RN.t0 a_10507_187.t5 VDD.t144 sky130_fd_pr__pfet_01v8 ad=0p pd=0u as=0p ps=0u w=2u l=0.15u
X1 GND a_10507_187.t7 a_10451_103.t0 GND sky130_fd_pr__nfet_01v8 ad=3.7611p pd=3.297u as=0p ps=0u w=0u l=0u
X2 a_14189_1050.t3 a_10637_1050.t7 VDD.t43 @ñ^a÷U sky130_fd_pr__pfet_01v8 ad=0p pd=0u as=0p ps=0u w=2u l=0.15u
X3 a_10959_989.t1 a_10637_1050.t8 VDD.t53 0Üª{Þ sky130_fd_pr__pfet_01v8 ad=0p pd=0u as=0p ps=0u w=2u l=0.15u
X4 a_599_989.t3 D.t0 VDD.t3  sky130_fd_pr__pfet_01v8 ad=0p pd=0u as=0p ps=0u w=2u l=0.15u
X5 a_16421_1051.t5 a_14511_989.t5 QN.t4 0Üª{Þ sky130_fd_pr__pfet_01v8 ad=0p pd=0u as=0p ps=0u w=2u l=0.15u
X6 QN a_14511_989.t7 a_15652_101.t0 GND sky130_fd_pr__nfet_01v8 ad=5.373p pd=4.72u as=0p ps=0u w=0u l=0u
X7 a_5327_187.t6 CLK.t0 VDD.t151  sky130_fd_pr__pfet_01v8 ad=0p pd=0u as=0p ps=0u w=2u l=0.15u
X8 VDD.t83 a_599_989.t7 a_2141_1050.t2 0Üª{Þ sky130_fd_pr__pfet_01v8 ad=0p pd=0u as=0p ps=0u w=2u l=0.15u
X9 a_9331_989.t1 a_9009_1050.t7 VDD.t190  sky130_fd_pr__pfet_01v8 ad=0p pd=0u as=0p ps=0u w=2u l=0.15u
X10 VDD.t99 CLK.t1 a_277_1050.t4 0Üª{Þ sky130_fd_pr__pfet_01v8 ad=0p pd=0u as=0p ps=0u w=2u l=0.15u
X11 VDD.t51 a_5457_1050.t7 a_5779_989.t6  sky130_fd_pr__pfet_01v8 ad=0p pd=0u as=0p ps=0u w=2u l=0.15u
X12 VDD.t6 a_5457_1050.t8 a_9009_1050.t0 0Üª{Þ sky130_fd_pr__pfet_01v8 ad=0p pd=0u as=0p ps=0u w=2u l=0.15u
X13 VDD.t12 a_277_1050.t7 a_3829_1050.t6  sky130_fd_pr__pfet_01v8 ad=0p pd=0u as=0p ps=0u w=2u l=0.15u
X14 VDD.t143 RN.t2 a_5779_989.t3 0Üª{Þ sky130_fd_pr__pfet_01v8 ad=0p pd=0u as=0p ps=0u w=2u l=0.15u
X15 VDD.t70 a_9331_989.t5 a_9009_1050.t3  sky130_fd_pr__pfet_01v8 ad=0p pd=0u as=0p ps=0u w=2u l=0.15u
X16 VDD.t81 CLK.t2 a_10507_187.t2 0Üª{Þ sky130_fd_pr__pfet_01v8 ad=0p pd=0u as=0p ps=0u w=2u l=0.15u
X17 VDD.t188 CLK.t3 a_10637_1050.t6  sky130_fd_pr__pfet_01v8 ad=0p pd=0u as=0p ps=0u w=2u l=0.15u
X18 a_9331_989.t4 a_5327_187.t7 VDD.t22 0Üª{Þ sky130_fd_pr__pfet_01v8 ad=0p pd=0u as=0p ps=0u w=2u l=0.15u
X19 a_14189_1050.t5 RN.t3 VDD.t141  sky130_fd_pr__pfet_01v8 ad=0p pd=0u as=0p ps=0u w=2u l=0.15u
X20 a_10959_989.t5 D.t2 VDD.t173 0Üª{Þ sky130_fd_pr__pfet_01v8 ad=0p pd=0u as=0p ps=0u w=2u l=0.15u
X21 GND a_9331_989.t7 a_16318_101.t0 GND sky130_fd_pr__nfet_01v8 ad=0p pd=0u as=0p ps=0u w=0u l=0u
X22 a_599_989.t6 RN.t4 VDD.t139  sky130_fd_pr__pfet_01v8 ad=0p pd=0u as=0p ps=0u w=2u l=0.15u
X23 a_3829_1050.t4 a_4151_989.t5 VDD.t103 0Üª{Þ sky130_fd_pr__pfet_01v8 ad=0p pd=0u as=0p ps=0u w=2u l=0.15u
X24 VDD.t20 a_14511_989.t6 a_15757_1051.t1  sky130_fd_pr__pfet_01v8 ad=0p pd=0u as=0p ps=0u w=2u l=0.15u
X25 a_10637_1050.t5 a_10507_187.t8 VDD.t165 0Üª{Þ sky130_fd_pr__pfet_01v8 ad=0p pd=0u as=0p ps=0u w=2u l=0.15u
X26 a_147_187.t6 CLK.t4 VDD.t194  sky130_fd_pr__pfet_01v8 ad=0p pd=0u as=0p ps=0u w=2u l=0.15u
X27 a_4151_989.t1 a_3829_1050.t7 VDD.t32 0Üª{Þ sky130_fd_pr__pfet_01v8 ad=0p pd=0u as=0p ps=0u w=2u l=0.15u
X28 GND a_5457_1050.t10 a_8823_103.t0 GND sky130_fd_pr__nfet_01v8 ad=0p pd=0u as=0p ps=0u w=0u l=0u
X29 a_9009_1050.t2 a_5457_1050.t9 VDD.t14  sky130_fd_pr__pfet_01v8 ad=0p pd=0u as=0p ps=0u w=2u l=0.15u
X30 a_15757_1051.t3 a_9331_989.t6 VDD.t28 0Üª{Þ sky130_fd_pr__pfet_01v8 ad=0p pd=0u as=0p ps=0u w=2u l=0.15u
X31 VDD.t204 a_14189_1050.t7 a_14511_989.t1  sky130_fd_pr__pfet_01v8 ad=0p pd=0u as=0p ps=0u w=2u l=0.15u
X32 VDD.t181 a_10959_989.t8 a_12501_1050.t1 0Üª{Þ sky130_fd_pr__pfet_01v8 ad=0p pd=0u as=0p ps=0u w=2u l=0.15u
X33 GND a_5457_1050.t11 a_6233_103.t0 GND sky130_fd_pr__nfet_01v8 ad=0p pd=0u as=0p ps=0u w=0u l=0u
X34 VDD.t200 a_147_187.t9 a_2141_1050.t4  sky130_fd_pr__pfet_01v8 ad=0p pd=0u as=0p ps=0u w=2u l=0.15u
X35 VDD.t169 a_599_989.t8 a_277_1050.t2 0Üª{Þ sky130_fd_pr__pfet_01v8 ad=0p pd=0u as=0p ps=0u w=2u l=0.15u
X36 QN a_14511_989.t10 a_16984_101.t0 GND sky130_fd_pr__nfet_01v8 ad=0p pd=0u as=0p ps=0u w=0u l=0u
X37 VDD.t109 D.t4 a_5779_989.t1  sky130_fd_pr__pfet_01v8 ad=0p pd=0u as=0p ps=0u w=2u l=0.15u
X38 VDD.t137 RN.t6 a_9009_1050.t5 0Üª{Þ sky130_fd_pr__pfet_01v8 ad=0p pd=0u as=0p ps=0u w=2u l=0.15u
X39 VDD.t167 a_2141_1050.t5 a_147_187.t4  sky130_fd_pr__pfet_01v8 ad=0p pd=0u as=0p ps=0u w=2u l=0.15u
X40 VDD.t97 a_5327_187.t8 a_5457_1050.t6 0Üª{Þ sky130_fd_pr__pfet_01v8 ad=0p pd=0u as=0p ps=0u w=2u l=0.15u
X41 VDD.t35 a_7321_1050.t5 a_5327_187.t0  sky130_fd_pr__pfet_01v8 ad=0p pd=0u as=0p ps=0u w=2u l=0.15u
X42 GND a_9009_1050.t9 a_9806_101.t0 GND sky130_fd_pr__nfet_01v8 ad=0p pd=0u as=0p ps=0u w=0u l=0u
X43 a_14189_1050.t1 a_14511_989.t8 VDD.t18 0Üª{Þ sky130_fd_pr__pfet_01v8 ad=0p pd=0u as=0p ps=0u w=2u l=0.15u
X44 a_10959_989.t4 RN.t8 VDD.t135  sky130_fd_pr__pfet_01v8 ad=0p pd=0u as=0p ps=0u w=2u l=0.15u
X45 a_147_187.t2 RN.t9 VDD.t133 0Üª{Þ sky130_fd_pr__pfet_01v8 ad=0p pd=0u as=0p ps=0u w=2u l=0.15u
X46 GND a_5779_989.t8 a_7216_101.t0 GND sky130_fd_pr__nfet_01v8 ad=0p pd=0u as=0p ps=0u w=0u l=0u
X47 GND a_147_187.t12 a_91_103.t0 GND sky130_fd_pr__nfet_01v8 ad=0p pd=0u as=0p ps=0u w=0u l=0u
X48 GND a_7321_1050.t6 a_7861_103.t0 GND sky130_fd_pr__nfet_01v8 ad=0p pd=0u as=0p ps=0u w=0u l=0u
X49 a_4151_989.t3 a_147_187.t10 VDD.t74  sky130_fd_pr__pfet_01v8 ad=0p pd=0u as=0p ps=0u w=2u l=0.15u
X50 a_7321_1050.t4 a_5327_187.t9 VDD.t1 0Üª{Þ sky130_fd_pr__pfet_01v8 ad=0p pd=0u as=0p ps=0u w=2u l=0.15u
X51 QN.t6 a_4151_989.t6 a_16421_1051.t7  sky130_fd_pr__pfet_01v8 ad=0p pd=0u as=0p ps=0u w=2u l=0.15u
X52 VDD.t38 a_10959_989.t9 a_10637_1050.t1 0Üª{Þ sky130_fd_pr__pfet_01v8 ad=0p pd=0u as=0p ps=0u w=2u l=0.15u
X53 GND a_5327_187.t10 a_5271_103.t0 GND sky130_fd_pr__nfet_01v8 ad=0p pd=0u as=0p ps=0u w=0u l=0u
X54 a_15757_1051.t0 a_14511_989.t9 VDD.t47  sky130_fd_pr__pfet_01v8 ad=0p pd=0u as=0p ps=0u w=2u l=0.15u
X55 VDD.t163 a_10507_187.t10 a_14511_989.t4 0Üª{Þ sky130_fd_pr__pfet_01v8 ad=0p pd=0u as=0p ps=0u w=2u l=0.15u
X56 VDD.t161 a_10507_187.t11 a_12501_1050.t4  sky130_fd_pr__pfet_01v8 ad=0p pd=0u as=0p ps=0u w=2u l=0.15u
X57 a_277_1050.t6 a_147_187.t11 VDD.t76 0Üª{Þ sky130_fd_pr__pfet_01v8 ad=0p pd=0u as=0p ps=0u w=2u l=0.15u
X58 a_16421_1051.t1 a_4151_989.t7 a_15757_1051.t7  sky130_fd_pr__pfet_01v8 ad=0p pd=0u as=0p ps=0u w=2u l=0.15u
X59 VDD.t196 a_9009_1050.t8 a_9331_989.t0 0Üª{Þ sky130_fd_pr__pfet_01v8 ad=0p pd=0u as=0p ps=0u w=2u l=0.15u
X60 a_10507_187.t0 a_12501_1050.t5 VDD.t63  sky130_fd_pr__pfet_01v8 ad=0p pd=0u as=0p ps=0u w=2u l=0.15u
X61 a_10507_187.t4 RN.t11 VDD.t131 0Üª{Þ sky130_fd_pr__pfet_01v8 ad=0p pd=0u as=0p ps=0u w=2u l=0.15u
X62 a_10637_1050.t2 a_10959_989.t10 VDD.t65  sky130_fd_pr__pfet_01v8 ad=0p pd=0u as=0p ps=0u w=2u l=0.15u
X63 a_7321_1050.t1 a_5779_989.t9 VDD.t153 0Üª{Þ sky130_fd_pr__pfet_01v8 ad=0p pd=0u as=0p ps=0u w=2u l=0.15u
X64 VDD.t59 a_277_1050.t8 a_599_989.t1  sky130_fd_pr__pfet_01v8 ad=0p pd=0u as=0p ps=0u w=2u l=0.15u
X65 QN.t2 a_14511_989.t11 a_16421_1051.t4 0Üª{Þ sky130_fd_pr__pfet_01v8 ad=0p pd=0u as=0p ps=0u w=2u l=0.15u
X66 VDD.t129 RN.t12 a_599_989.t5  sky130_fd_pr__pfet_01v8 ad=0p pd=0u as=0p ps=0u w=2u l=0.15u
X67 VDD.t105 a_4151_989.t8 a_3829_1050.t3 0Üª{Þ sky130_fd_pr__pfet_01v8 ad=0p pd=0u as=0p ps=0u w=2u l=0.15u
X68 GND a_12501_1050.t6 a_13041_103.t0 GND sky130_fd_pr__nfet_01v8 ad=0p pd=0u as=0p ps=0u w=0u l=0u
X69 QN a_4151_989.t10 a_16318_101.t0 GND sky130_fd_pr__nfet_01v8 ad=0p pd=0u as=0p ps=0u w=0u l=0u
X70 GND a_277_1050.t11 a_3643_103.t0 GND sky130_fd_pr__nfet_01v8 ad=0p pd=0u as=0p ps=0u w=0u l=0u
X71 VDD.t26 a_5779_989.t10 a_5457_1050.t1  sky130_fd_pr__pfet_01v8 ad=0p pd=0u as=0p ps=0u w=2u l=0.15u
X72 VDD.t127 RN.t14 a_5327_187.t4 0Üª{Þ sky130_fd_pr__pfet_01v8 ad=0p pd=0u as=0p ps=0u w=2u l=0.15u
X73 a_16421_1051.t2 a_9331_989.t8 a_15757_1051.t5  sky130_fd_pr__pfet_01v8 ad=0p pd=0u as=0p ps=0u w=2u l=0.15u
X74 a_2141_1050.t1 a_599_989.t10 VDD.t8 0Üª{Þ sky130_fd_pr__pfet_01v8 ad=0p pd=0u as=0p ps=0u w=2u l=0.15u
X75 a_277_1050.t3 CLK.t7 VDD.t78  sky130_fd_pr__pfet_01v8 ad=0p pd=0u as=0p ps=0u w=2u l=0.15u
X76 a_3829_1050.t5 a_277_1050.t9 VDD.t202 0Üª{Þ sky130_fd_pr__pfet_01v8 ad=0p pd=0u as=0p ps=0u w=2u l=0.15u
X77 a_5779_989.t5 a_5457_1050.t12 VDD.t61  sky130_fd_pr__pfet_01v8 ad=0p pd=0u as=0p ps=0u w=2u l=0.15u
X78 a_10507_187.t6 CLK.t8 VDD.t179 0Üª{Þ sky130_fd_pr__pfet_01v8 ad=0p pd=0u as=0p ps=0u w=2u l=0.15u
X79 a_10637_1050.t0 CLK.t9 VDD.t10  sky130_fd_pr__pfet_01v8 ad=0p pd=0u as=0p ps=0u w=2u l=0.15u
X80 VDD.t206 a_10637_1050.t10 a_14189_1050.t2 0Üª{Þ sky130_fd_pr__pfet_01v8 ad=0p pd=0u as=0p ps=0u w=2u l=0.15u
X81 VDD.t87 a_10637_1050.t11 a_10959_989.t0  sky130_fd_pr__pfet_01v8 ad=0p pd=0u as=0p ps=0u w=2u l=0.15u
X82 GND a_3829_1050.t8 a_4626_101.t0 GND sky130_fd_pr__nfet_01v8 ad=0p pd=0u as=0p ps=0u w=0u l=0u
X83 VDD.t125 RN.t15 a_3829_1050.t1 0Üª{Þ sky130_fd_pr__pfet_01v8 ad=0p pd=0u as=0p ps=0u w=2u l=0.15u
X84 VDD.t175 D.t6 a_599_989.t2  sky130_fd_pr__pfet_01v8 ad=0p pd=0u as=0p ps=0u w=2u l=0.15u
X85 GND a_599_989.t12 a_2036_101.t0 GND sky130_fd_pr__nfet_01v8 ad=0p pd=0u as=0p ps=0u w=0u l=0u
X86 GND a_10637_1050.t12 a_14003_103.t0 GND sky130_fd_pr__nfet_01v8 ad=0p pd=0u as=0p ps=0u w=0u l=0u
X87 GND a_2141_1050.t7 a_2681_103.t0 GND sky130_fd_pr__nfet_01v8 ad=0p pd=0u as=0p ps=0u w=0u l=0u
X88 a_599_989.t0 a_277_1050.t10 VDD.t57 0Üª{Þ sky130_fd_pr__pfet_01v8 ad=0p pd=0u as=0p ps=0u w=2u l=0.15u
X89 VDD.t45 CLK.t11 a_5457_1050.t4  sky130_fd_pr__pfet_01v8 ad=0p pd=0u as=0p ps=0u w=2u l=0.15u
X90 VDD.t91 CLK.t12 a_5327_187.t2 0Üª{Þ sky130_fd_pr__pfet_01v8 ad=0p pd=0u as=0p ps=0u w=2u l=0.15u
X91 a_2141_1050.t3 a_147_187.t13 VDD.t184  sky130_fd_pr__pfet_01v8 ad=0p pd=0u as=0p ps=0u w=2u l=0.15u
X92 a_277_1050.t1 a_599_989.t11 VDD.t85 0Üª{Þ sky130_fd_pr__pfet_01v8 ad=0p pd=0u as=0p ps=0u w=2u l=0.15u
X93 a_3829_1050.t0 RN.t16 VDD.t123  sky130_fd_pr__pfet_01v8 ad=0p pd=0u as=0p ps=0u w=2u l=0.15u
X94 a_5779_989.t0 D.t7 VDD.t171 0Üª{Þ sky130_fd_pr__pfet_01v8 ad=0p pd=0u as=0p ps=0u w=2u l=0.15u
X95 a_9009_1050.t4 RN.t17 VDD.t121  sky130_fd_pr__pfet_01v8 ad=0p pd=0u as=0p ps=0u w=2u l=0.15u
X96 a_5327_187.t1 a_7321_1050.t7 VDD.t49 0Üª{Þ sky130_fd_pr__pfet_01v8 ad=0p pd=0u as=0p ps=0u w=2u l=0.15u
X97 VDD.t89 a_5327_187.t12 a_9331_989.t3  sky130_fd_pr__pfet_01v8 ad=0p pd=0u as=0p ps=0u w=2u l=0.15u
X98 GND a_9331_989.t11 a_15652_101.t0 GND sky130_fd_pr__nfet_01v8 ad=0p pd=0u as=0p ps=0u w=0u l=0u
X99 GND a_14189_1050.t8 a_14986_101.t0 GND sky130_fd_pr__nfet_01v8 ad=0p pd=0u as=0p ps=0u w=0u l=0u
X100 a_147_187.t3 a_2141_1050.t6 VDD.t107 0Üª{Þ sky130_fd_pr__pfet_01v8 ad=0p pd=0u as=0p ps=0u w=2u l=0.15u
X101 a_5457_1050.t5 a_5327_187.t13 VDD.t95  sky130_fd_pr__pfet_01v8 ad=0p pd=0u as=0p ps=0u w=2u l=0.15u
X102 VDD.t119 RN.t18 a_14189_1050.t4 0Üª{Þ sky130_fd_pr__pfet_01v8 ad=0p pd=0u as=0p ps=0u w=2u l=0.15u
X103 VDD.t177 D.t8 a_10959_989.t6  sky130_fd_pr__pfet_01v8 ad=0p pd=0u as=0p ps=0u w=2u l=0.15u
X104 VDD.t149 CLK.t14 a_147_187.t5 0Üª{Þ sky130_fd_pr__pfet_01v8 ad=0p pd=0u as=0p ps=0u w=2u l=0.15u
X105 VDD.t93 a_5779_989.t11 a_7321_1050.t0  sky130_fd_pr__pfet_01v8 ad=0p pd=0u as=0p ps=0u w=2u l=0.15u
X106 VDD.t30 a_3829_1050.t9 a_4151_989.t0 0Üª{Þ sky130_fd_pr__pfet_01v8 ad=0p pd=0u as=0p ps=0u w=2u l=0.15u
X107 VDD.t192 a_9331_989.t9 a_15757_1051.t2  sky130_fd_pr__pfet_01v8 ad=0p pd=0u as=0p ps=0u w=2u l=0.15u
X108 GND a_277_1050.t12 a_1053_103.t0 GND sky130_fd_pr__nfet_01v8 ad=0p pd=0u as=0p ps=0u w=0u l=0u
X109 a_14511_989.t3 a_10507_187.t13 VDD.t159 0Üª{Þ sky130_fd_pr__pfet_01v8 ad=0p pd=0u as=0p ps=0u w=2u l=0.15u
X110 a_12501_1050.t3 a_10507_187.t14 VDD.t157  sky130_fd_pr__pfet_01v8 ad=0p pd=0u as=0p ps=0u w=2u l=0.15u
X111 a_9009_1050.t6 a_9331_989.t10 VDD.t198 0Üª{Þ sky130_fd_pr__pfet_01v8 ad=0p pd=0u as=0p ps=0u w=2u l=0.15u
X112 a_5779_989.t2 RN.t21 VDD.t117  sky130_fd_pr__pfet_01v8 ad=0p pd=0u as=0p ps=0u w=2u l=0.15u
X113 a_5457_1050.t3 CLK.t16 VDD.t147 0Üª{Þ sky130_fd_pr__pfet_01v8 ad=0p pd=0u as=0p ps=0u w=2u l=0.15u
X114 a_15757_1051.t4 a_9331_989.t12 a_16421_1051.t6  sky130_fd_pr__pfet_01v8 ad=0p pd=0u as=0p ps=0u w=2u l=0.15u
X115 VDD.t16 a_14511_989.t13 a_14189_1050.t0 0Üª{Þ sky130_fd_pr__pfet_01v8 ad=0p pd=0u as=0p ps=0u w=2u l=0.15u
X116 GND a_4151_989.t13 a_16984_101.t0 GND sky130_fd_pr__nfet_01v8 ad=0p pd=0u as=0p ps=0u w=0u l=0u
X117 VDD.t115 RN.t23 a_147_187.t1  sky130_fd_pr__pfet_01v8 ad=0p pd=0u as=0p ps=0u w=2u l=0.15u
X118 VDD.t101 a_147_187.t14 a_4151_989.t2 0Üª{Þ sky130_fd_pr__pfet_01v8 ad=0p pd=0u as=0p ps=0u w=2u l=0.15u
X119 VDD.t186 a_5327_187.t15 a_7321_1050.t3  sky130_fd_pr__pfet_01v8 ad=0p pd=0u as=0p ps=0u w=2u l=0.15u
X120 a_16421_1051.t3 a_4151_989.t11 QN.t0 0Üª{Þ sky130_fd_pr__pfet_01v8 ad=0p pd=0u as=0p ps=0u w=2u l=0.15u
X121 GND a_10637_1050.t9 a_11413_103.t0 GND sky130_fd_pr__nfet_01v8 ad=0p pd=0u as=0p ps=0u w=0u l=0u
X122 a_14511_989.t0 a_14189_1050.t9 VDD.t40  sky130_fd_pr__pfet_01v8 ad=0p pd=0u as=0p ps=0u w=2u l=0.15u
X123 a_12501_1050.t0 a_10959_989.t12 VDD.t67 0Üª{Þ sky130_fd_pr__pfet_01v8 ad=0p pd=0u as=0p ps=0u w=2u l=0.15u
X124 VDD.t113 RN.t25 a_10959_989.t3  sky130_fd_pr__pfet_01v8 ad=0p pd=0u as=0p ps=0u w=2u l=0.15u
X125 a_5457_1050.t0 a_5779_989.t12 VDD.t24 0Üª{Þ sky130_fd_pr__pfet_01v8 ad=0p pd=0u as=0p ps=0u w=2u l=0.15u
X126 a_5327_187.t3 RN.t26 VDD.t111  sky130_fd_pr__pfet_01v8 ad=0p pd=0u as=0p ps=0u w=2u l=0.15u
X127 VDD.t55 a_147_187.t15 a_277_1050.t5 0Üª{Þ sky130_fd_pr__pfet_01v8 ad=0p pd=0u as=0p ps=0u w=2u l=0.15u
X128 a_15757_1051.t6 a_4151_989.t12 a_16421_1051.t0  sky130_fd_pr__pfet_01v8 ad=0p pd=0u as=0p ps=0u w=2u l=0.15u
X129 GND a_10959_989.t7 a_12396_101.t0 GND sky130_fd_pr__nfet_01v8 ad=0p pd=0u as=0p ps=0u w=0u l=0u
X130 VDD.t155 a_10507_187.t15 a_10637_1050.t4 0Üª{Þ sky130_fd_pr__pfet_01v8 ad=0p pd=0u as=0p ps=0u w=2u l=0.15u
X131 VDD.t72 a_12501_1050.t7 a_10507_187.t1  sky130_fd_pr__pfet_01v8 ad=0p pd=0u as=0p ps=0u w=2u l=0.15u
C0 CLK VDD 8.54fF
C1 D VDD 0.88fF
C2 RN VDD 2.66fF
C3 QN VDD 0.73fF
C4 CLK D 0.45fF
C5 CLK RN 1.13fF
C6 D RN 12.60fF
R0 RN.n17 RN.t15 479.223
R1 RN.n8 RN.t6 479.223
R2 RN.n0 RN.t18 479.223
R3 RN.n23 RN.t4 454.685
R4 RN.n20 RN.t9 454.685
R5 RN.n14 RN.t21 454.685
R6 RN.n11 RN.t26 454.685
R7 RN.n5 RN.t8 454.685
R8 RN.n2 RN.t11 454.685
R9 RN.n23 RN.t12 428.979
R10 RN.n20 RN.t23 428.979
R11 RN.n14 RN.t2 428.979
R12 RN.n11 RN.t14 428.979
R13 RN.n5 RN.t25 428.979
R14 RN.n2 RN.t0 428.979
R15 RN.n17 RN.t16 375.52
R16 RN.n8 RN.t17 375.52
R17 RN.n0 RN.t3 375.52
R18 RN.n24 RN.n23 254.865
R19 RN.n21 RN.n20 254.865
R20 RN.n15 RN.n14 254.865
R21 RN.n12 RN.n11 254.865
R22 RN.n6 RN.n5 254.865
R23 RN.n3 RN.n2 254.865
R24 RN.n18 RN.n17 252.188
R25 RN.n9 RN.n8 252.188
R26 RN.n1 RN.n0 252.188
R27 RN.n18 RN.t20 231.854
R28 RN.n9 RN.t7 231.854
R29 RN.n1 RN.t24 231.854
R30 RN.n24 RN.t19 228.106
R31 RN.n21 RN.t10 228.106
R32 RN.n15 RN.t5 228.106
R33 RN.n12 RN.t1 228.106
R34 RN.n6 RN.t22 228.106
R35 RN.n3 RN.t13 228.106
R36 RN.n10 RN.n7 10.293
R37 RN.n19 RN.n16 10.293
R38 RN.n4 RN.n1 7.325
R39 RN.n7 RN.n4 5.94
R40 RN.n16 RN.n13 5.94
R41 RN.n25 RN.n22 5.94
R42 RN.n4 RN.n3 4.65
R43 RN.n7 RN.n6 4.65
R44 RN.n10 RN.n9 4.65
R45 RN.n13 RN.n12 4.65
R46 RN.n16 RN.n15 4.65
R47 RN.n19 RN.n18 4.65
R48 RN.n22 RN.n21 4.65
R49 RN.n25 RN.n24 4.65
R50 RN.n13 RN.n10 2.675
R51 RN.n22 RN.n19 2.675
R52 RN.n25 RN 0.046
R53 a_10507_187.n10 a_10507_187.t15 512.525
R54 a_10507_187.n8 a_10507_187.t11 472.359
R55 a_10507_187.n6 a_10507_187.t10 472.359
R56 a_10507_187.n11 a_10507_187.t7 417.109
R57 a_10507_187.n8 a_10507_187.t14 384.527
R58 a_10507_187.n6 a_10507_187.t13 384.527
R59 a_10507_187.n10 a_10507_187.t8 371.139
R60 a_10507_187.n9 a_10507_187.t12 370.613
R61 a_10507_187.n7 a_10507_187.t9 370.613
R62 a_10507_187.n16 a_10507_187.n14 363.934
R63 a_10507_187.n11 a_10507_187.n10 179.837
R64 a_10507_187.n4 a_10507_187.n3 161.352
R65 a_10507_187.n9 a_10507_187.n8 127.096
R66 a_10507_187.n7 a_10507_187.n6 127.096
R67 a_10507_187.n14 a_10507_187.n5 123.481
R68 a_10507_187.n5 a_10507_187.n1 95.095
R69 a_10507_187.n4 a_10507_187.n2 95.095
R70 a_10507_187.n5 a_10507_187.n4 66.258
R71 a_10507_187.n16 a_10507_187.n15 30
R72 a_10507_187.n17 a_10507_187.n0 24.383
R73 a_10507_187.n17 a_10507_187.n16 23.684
R74 a_10507_187.n1 a_10507_187.t5 14.282
R75 a_10507_187.n1 a_10507_187.t4 14.282
R76 a_10507_187.n2 a_10507_187.t2 14.282
R77 a_10507_187.n2 a_10507_187.t6 14.282
R78 a_10507_187.n3 a_10507_187.t1 14.282
R79 a_10507_187.n3 a_10507_187.t0 14.282
R80 a_10507_187.n12 a_10507_187.n11 12.222
R81 a_10507_187.n13 a_10507_187.n7 10.046
R82 a_10507_187.n12 a_10507_187.n9 4.65
R83 a_10507_187.n14 a_10507_187.n13 4.65
R84 a_10507_187.n13 a_10507_187.n12 4.035
R85 VDD.n826 VDD.n815 144.705
R86 VDD.n901 VDD.n894 144.705
R87 VDD.n958 VDD.n951 144.705
R88 VDD.n1033 VDD.n1026 144.705
R89 VDD.n1108 VDD.n1101 144.705
R90 VDD.n1165 VDD.n1158 144.705
R91 VDD.n1240 VDD.n1233 144.705
R92 VDD.n1315 VDD.n1308 144.705
R93 VDD.n1372 VDD.n1365 144.705
R94 VDD.n656 VDD.n649 144.705
R95 VDD.n727 VDD.n720 144.705
R96 VDD.n599 VDD.n592 144.705
R97 VDD.n524 VDD.n517 144.705
R98 VDD.n449 VDD.n442 144.705
R99 VDD.n392 VDD.n385 144.705
R100 VDD.n317 VDD.n310 144.705
R101 VDD.n242 VDD.n235 144.705
R102 VDD.n185 VDD.n178 144.705
R103 VDD.n128 VDD.n121 144.705
R104 VDD.n75 VDD.n64 144.705
R105 VDD.n792 VDD.t169 143.754
R106 VDD.n868 VDD.t129 143.754
R107 VDD.n1000 VDD.t115 143.754
R108 VDD.n1075 VDD.t105 143.754
R109 VDD.n1207 VDD.t26 143.754
R110 VDD.n1282 VDD.t143 143.754
R111 VDD.n1414 VDD.t127 143.754
R112 VDD.n665 VDD.t70 143.754
R113 VDD.n533 VDD.t38 143.754
R114 VDD.n458 VDD.t113 143.754
R115 VDD.n326 VDD.t145 143.754
R116 VDD.n251 VDD.t16 143.754
R117 VDD.n926 VDD.t200 143.754
R118 VDD.n1133 VDD.t101 143.754
R119 VDD.n1340 VDD.t186 143.754
R120 VDD.n602 VDD.t89 143.754
R121 VDD.n395 VDD.t161 143.754
R122 VDD.n188 VDD.t163 143.754
R123 VDD.n153 VDD.t28 135.539
R124 VDD.n131 VDD.t20 135.539
R125 VDD.n757 VDD.t76 135.17
R126 VDD.n833 VDD.t57 135.17
R127 VDD.n904 VDD.t8 135.17
R128 VDD.n965 VDD.t107 135.17
R129 VDD.n1040 VDD.t202 135.17
R130 VDD.n1111 VDD.t32 135.17
R131 VDD.n1172 VDD.t95 135.17
R132 VDD.n1247 VDD.t61 135.17
R133 VDD.n1318 VDD.t153 135.17
R134 VDD.n1379 VDD.t49 135.17
R135 VDD.n695 VDD.t14 135.17
R136 VDD.n624 VDD.t190 135.17
R137 VDD.n563 VDD.t165 135.17
R138 VDD.n488 VDD.t53 135.17
R139 VDD.n417 VDD.t67 135.17
R140 VDD.n356 VDD.t63 135.17
R141 VDD.n281 VDD.t43 135.17
R142 VDD.n210 VDD.t40 135.17
R143 VDD.n141 VDD.n140 129.849
R144 VDD.n767 VDD.n766 129.472
R145 VDD.n783 VDD.n782 129.472
R146 VDD.n843 VDD.n842 129.472
R147 VDD.n859 VDD.n858 129.472
R148 VDD.n918 VDD.n917 129.472
R149 VDD.n975 VDD.n974 129.472
R150 VDD.n991 VDD.n990 129.472
R151 VDD.n1050 VDD.n1049 129.472
R152 VDD.n1066 VDD.n1065 129.472
R153 VDD.n1125 VDD.n1124 129.472
R154 VDD.n1182 VDD.n1181 129.472
R155 VDD.n1198 VDD.n1197 129.472
R156 VDD.n1257 VDD.n1256 129.472
R157 VDD.n1273 VDD.n1272 129.472
R158 VDD.n1332 VDD.n1331 129.472
R159 VDD.n1389 VDD.n1388 129.472
R160 VDD.n1405 VDD.n1404 129.472
R161 VDD.n686 VDD.n685 129.472
R162 VDD.n674 VDD.n673 129.472
R163 VDD.n612 VDD.n611 129.472
R164 VDD.n554 VDD.n553 129.472
R165 VDD.n542 VDD.n541 129.472
R166 VDD.n479 VDD.n478 129.472
R167 VDD.n467 VDD.n466 129.472
R168 VDD.n405 VDD.n404 129.472
R169 VDD.n347 VDD.n346 129.472
R170 VDD.n335 VDD.n334 129.472
R171 VDD.n272 VDD.n271 129.472
R172 VDD.n260 VDD.n259 129.472
R173 VDD.n198 VDD.n197 129.472
R174 VDD.n60 VDD.n59 92.5
R175 VDD.n58 VDD.n57 92.5
R176 VDD.n56 VDD.n55 92.5
R177 VDD.n54 VDD.n53 92.5
R178 VDD.n62 VDD.n61 92.5
R179 VDD.n117 VDD.n116 92.5
R180 VDD.n115 VDD.n114 92.5
R181 VDD.n113 VDD.n112 92.5
R182 VDD.n111 VDD.n110 92.5
R183 VDD.n119 VDD.n118 92.5
R184 VDD.n174 VDD.n173 92.5
R185 VDD.n172 VDD.n171 92.5
R186 VDD.n170 VDD.n169 92.5
R187 VDD.n168 VDD.n167 92.5
R188 VDD.n176 VDD.n175 92.5
R189 VDD.n231 VDD.n230 92.5
R190 VDD.n229 VDD.n228 92.5
R191 VDD.n227 VDD.n226 92.5
R192 VDD.n225 VDD.n224 92.5
R193 VDD.n233 VDD.n232 92.5
R194 VDD.n306 VDD.n305 92.5
R195 VDD.n304 VDD.n303 92.5
R196 VDD.n302 VDD.n301 92.5
R197 VDD.n300 VDD.n299 92.5
R198 VDD.n308 VDD.n307 92.5
R199 VDD.n381 VDD.n380 92.5
R200 VDD.n379 VDD.n378 92.5
R201 VDD.n377 VDD.n376 92.5
R202 VDD.n375 VDD.n374 92.5
R203 VDD.n383 VDD.n382 92.5
R204 VDD.n438 VDD.n437 92.5
R205 VDD.n436 VDD.n435 92.5
R206 VDD.n434 VDD.n433 92.5
R207 VDD.n432 VDD.n431 92.5
R208 VDD.n440 VDD.n439 92.5
R209 VDD.n513 VDD.n512 92.5
R210 VDD.n511 VDD.n510 92.5
R211 VDD.n509 VDD.n508 92.5
R212 VDD.n507 VDD.n506 92.5
R213 VDD.n515 VDD.n514 92.5
R214 VDD.n588 VDD.n587 92.5
R215 VDD.n586 VDD.n585 92.5
R216 VDD.n584 VDD.n583 92.5
R217 VDD.n582 VDD.n581 92.5
R218 VDD.n590 VDD.n589 92.5
R219 VDD.n645 VDD.n644 92.5
R220 VDD.n643 VDD.n642 92.5
R221 VDD.n641 VDD.n640 92.5
R222 VDD.n639 VDD.n638 92.5
R223 VDD.n647 VDD.n646 92.5
R224 VDD.n716 VDD.n715 92.5
R225 VDD.n714 VDD.n713 92.5
R226 VDD.n712 VDD.n711 92.5
R227 VDD.n710 VDD.n709 92.5
R228 VDD.n718 VDD.n717 92.5
R229 VDD.n1361 VDD.n1360 92.5
R230 VDD.n1359 VDD.n1358 92.5
R231 VDD.n1357 VDD.n1356 92.5
R232 VDD.n1355 VDD.n1354 92.5
R233 VDD.n1363 VDD.n1362 92.5
R234 VDD.n1304 VDD.n1303 92.5
R235 VDD.n1302 VDD.n1301 92.5
R236 VDD.n1300 VDD.n1299 92.5
R237 VDD.n1298 VDD.n1297 92.5
R238 VDD.n1306 VDD.n1305 92.5
R239 VDD.n1229 VDD.n1228 92.5
R240 VDD.n1227 VDD.n1226 92.5
R241 VDD.n1225 VDD.n1224 92.5
R242 VDD.n1223 VDD.n1222 92.5
R243 VDD.n1231 VDD.n1230 92.5
R244 VDD.n1154 VDD.n1153 92.5
R245 VDD.n1152 VDD.n1151 92.5
R246 VDD.n1150 VDD.n1149 92.5
R247 VDD.n1148 VDD.n1147 92.5
R248 VDD.n1156 VDD.n1155 92.5
R249 VDD.n1097 VDD.n1096 92.5
R250 VDD.n1095 VDD.n1094 92.5
R251 VDD.n1093 VDD.n1092 92.5
R252 VDD.n1091 VDD.n1090 92.5
R253 VDD.n1099 VDD.n1098 92.5
R254 VDD.n1022 VDD.n1021 92.5
R255 VDD.n1020 VDD.n1019 92.5
R256 VDD.n1018 VDD.n1017 92.5
R257 VDD.n1016 VDD.n1015 92.5
R258 VDD.n1024 VDD.n1023 92.5
R259 VDD.n947 VDD.n946 92.5
R260 VDD.n945 VDD.n944 92.5
R261 VDD.n943 VDD.n942 92.5
R262 VDD.n941 VDD.n940 92.5
R263 VDD.n949 VDD.n948 92.5
R264 VDD.n890 VDD.n889 92.5
R265 VDD.n888 VDD.n887 92.5
R266 VDD.n886 VDD.n885 92.5
R267 VDD.n884 VDD.n883 92.5
R268 VDD.n892 VDD.n891 92.5
R269 VDD.n811 VDD.n810 92.5
R270 VDD.n809 VDD.n808 92.5
R271 VDD.n807 VDD.n806 92.5
R272 VDD.n805 VDD.n804 92.5
R273 VDD.n813 VDD.n812 92.5
R274 VDD.n741 VDD.n740 92.5
R275 VDD.n739 VDD.n738 92.5
R276 VDD.n737 VDD.n736 92.5
R277 VDD.n735 VDD.n734 92.5
R278 VDD.n743 VDD.n742 92.5
R279 VDD.n14 VDD.n1 92.5
R280 VDD.n5 VDD.n4 92.5
R281 VDD.n7 VDD.n6 92.5
R282 VDD.n9 VDD.n8 92.5
R283 VDD.n11 VDD.n10 92.5
R284 VDD.n13 VDD.n12 92.5
R285 VDD.n21 VDD.n20 92.059
R286 VDD.n74 VDD.n73 92.059
R287 VDD.n127 VDD.n126 92.059
R288 VDD.n184 VDD.n183 92.059
R289 VDD.n241 VDD.n240 92.059
R290 VDD.n316 VDD.n315 92.059
R291 VDD.n391 VDD.n390 92.059
R292 VDD.n448 VDD.n447 92.059
R293 VDD.n523 VDD.n522 92.059
R294 VDD.n598 VDD.n597 92.059
R295 VDD.n655 VDD.n654 92.059
R296 VDD.n726 VDD.n725 92.059
R297 VDD.n1371 VDD.n1370 92.059
R298 VDD.n1314 VDD.n1313 92.059
R299 VDD.n1239 VDD.n1238 92.059
R300 VDD.n1164 VDD.n1163 92.059
R301 VDD.n1107 VDD.n1106 92.059
R302 VDD.n1032 VDD.n1031 92.059
R303 VDD.n957 VDD.n956 92.059
R304 VDD.n900 VDD.n899 92.059
R305 VDD.n825 VDD.n824 92.059
R306 VDD.n749 VDD.n748 92.059
R307 VDD.n20 VDD.n16 67.194
R308 VDD.n20 VDD.n17 67.194
R309 VDD.n20 VDD.n18 67.194
R310 VDD.n20 VDD.n19 67.194
R311 VDD.n733 VDD.n732 44.141
R312 VDD.n882 VDD.n881 44.141
R313 VDD.n939 VDD.n938 44.141
R314 VDD.n1014 VDD.n1013 44.141
R315 VDD.n1089 VDD.n1088 44.141
R316 VDD.n1146 VDD.n1145 44.141
R317 VDD.n1221 VDD.n1220 44.141
R318 VDD.n1296 VDD.n1295 44.141
R319 VDD.n1353 VDD.n1352 44.141
R320 VDD.n708 VDD.n707 44.141
R321 VDD.n637 VDD.n636 44.141
R322 VDD.n580 VDD.n579 44.141
R323 VDD.n505 VDD.n504 44.141
R324 VDD.n430 VDD.n429 44.141
R325 VDD.n373 VDD.n372 44.141
R326 VDD.n298 VDD.n297 44.141
R327 VDD.n223 VDD.n222 44.141
R328 VDD.n166 VDD.n165 44.141
R329 VDD.n109 VDD.n108 44.141
R330 VDD.n5 VDD.n3 44.141
R331 VDD.n881 VDD.n879 44.107
R332 VDD.n938 VDD.n936 44.107
R333 VDD.n1013 VDD.n1011 44.107
R334 VDD.n1088 VDD.n1086 44.107
R335 VDD.n1145 VDD.n1143 44.107
R336 VDD.n1220 VDD.n1218 44.107
R337 VDD.n1295 VDD.n1293 44.107
R338 VDD.n1352 VDD.n1350 44.107
R339 VDD.n707 VDD.n705 44.107
R340 VDD.n636 VDD.n634 44.107
R341 VDD.n579 VDD.n577 44.107
R342 VDD.n504 VDD.n502 44.107
R343 VDD.n429 VDD.n427 44.107
R344 VDD.n372 VDD.n370 44.107
R345 VDD.n297 VDD.n295 44.107
R346 VDD.n222 VDD.n220 44.107
R347 VDD.n165 VDD.n163 44.107
R348 VDD.n108 VDD.n106 44.107
R349 VDD.n732 VDD.n730 44.107
R350 VDD.n3 VDD.n2 44.107
R351 VDD.n20 VDD.n15 41.052
R352 VDD.n68 VDD.n66 39.742
R353 VDD.n68 VDD.n67 39.742
R354 VDD.n70 VDD.n69 39.742
R355 VDD.n123 VDD.n122 39.742
R356 VDD.n180 VDD.n179 39.742
R357 VDD.n237 VDD.n236 39.742
R358 VDD.n312 VDD.n311 39.742
R359 VDD.n387 VDD.n386 39.742
R360 VDD.n444 VDD.n443 39.742
R361 VDD.n519 VDD.n518 39.742
R362 VDD.n594 VDD.n593 39.742
R363 VDD.n651 VDD.n650 39.742
R364 VDD.n722 VDD.n721 39.742
R365 VDD.n1367 VDD.n1366 39.742
R366 VDD.n1310 VDD.n1309 39.742
R367 VDD.n1235 VDD.n1234 39.742
R368 VDD.n1160 VDD.n1159 39.742
R369 VDD.n1103 VDD.n1102 39.742
R370 VDD.n1028 VDD.n1027 39.742
R371 VDD.n953 VDD.n952 39.742
R372 VDD.n896 VDD.n895 39.742
R373 VDD.n745 VDD.n744 39.742
R374 VDD.n823 VDD.n820 39.742
R375 VDD.n823 VDD.n822 39.742
R376 VDD.n819 VDD.n818 39.742
R377 VDD.n108 VDD.n107 38
R378 VDD.n165 VDD.n164 38
R379 VDD.n222 VDD.n221 38
R380 VDD.n297 VDD.n296 38
R381 VDD.n372 VDD.n371 38
R382 VDD.n429 VDD.n428 38
R383 VDD.n504 VDD.n503 38
R384 VDD.n579 VDD.n578 38
R385 VDD.n636 VDD.n635 38
R386 VDD.n707 VDD.n706 38
R387 VDD.n1352 VDD.n1351 38
R388 VDD.n1295 VDD.n1294 38
R389 VDD.n1220 VDD.n1219 38
R390 VDD.n1145 VDD.n1144 38
R391 VDD.n1088 VDD.n1087 38
R392 VDD.n1013 VDD.n1012 38
R393 VDD.n938 VDD.n937 38
R394 VDD.n881 VDD.n880 38
R395 VDD.n732 VDD.n731 38
R396 VDD.n879 VDD.n878 36.774
R397 VDD.n936 VDD.n935 36.774
R398 VDD.n1011 VDD.n1010 36.774
R399 VDD.n1086 VDD.n1085 36.774
R400 VDD.n1143 VDD.n1142 36.774
R401 VDD.n1218 VDD.n1217 36.774
R402 VDD.n1293 VDD.n1292 36.774
R403 VDD.n1350 VDD.n1349 36.774
R404 VDD.n705 VDD.n704 36.774
R405 VDD.n634 VDD.n633 36.774
R406 VDD.n577 VDD.n576 36.774
R407 VDD.n502 VDD.n501 36.774
R408 VDD.n427 VDD.n426 36.774
R409 VDD.n370 VDD.n369 36.774
R410 VDD.n295 VDD.n294 36.774
R411 VDD.n220 VDD.n219 36.774
R412 VDD.n163 VDD.n162 36.774
R413 VDD.n106 VDD.n105 36.774
R414 VDD.n66 VDD.n65 36.774
R415 VDD.n822 VDD.n821 36.774
R416 VDD.n253 0Üª{Þ 35.8
R417 VDD.n328 VDD.t144 35.8
R418 VDD.n460  35.8
R419 VDD.n535 0Üª{Þ 35.8
R420 VDD.n667  35.8
R421 VDD.n1408 0Üª{Þ 35.8
R422 VDD.n1276 0Üª{Þ 35.8
R423 VDD.n1201  35.8
R424 VDD.n1069 0Üª{Þ 35.8
R425 VDD.n994  35.8
R426 VDD.n862  35.8
R427 VDD.n786 0Üª{Þ 35.8
R428 VDD.n277 ðÛª{Þ 33.243
R429 VDD.n352  33.243
R430 VDD.n484 0Üª{Þ 33.243
R431 VDD.n559 0Üª{Þ 33.243
R432 VDD.n691  33.243
R433 VDD.n1384 0Üª{Þ 33.243
R434 VDD.n1252  33.243
R435 VDD.n1177  33.243
R436 VDD.n1045 0Üª{Þ 33.243
R437 VDD.n970 0Üª{Þ 33.243
R438 VDD.n838 0Üª{Þ 33.243
R439 VDD.n762 0Üª{Þ 33.243
R440 VDD.n1 VDD.n0 30.923
R441 VDD.n73 VDD.n71 26.38
R442 VDD.n73 VDD.n70 26.38
R443 VDD.n73 VDD.n68 26.38
R444 VDD.n73 VDD.n72 26.38
R445 VDD.n126 VDD.n124 26.38
R446 VDD.n126 VDD.n123 26.38
R447 VDD.n126 VDD.n125 26.38
R448 VDD.n183 VDD.n181 26.38
R449 VDD.n183 VDD.n180 26.38
R450 VDD.n183 VDD.n182 26.38
R451 VDD.n240 VDD.n238 26.38
R452 VDD.n240 VDD.n237 26.38
R453 VDD.n240 VDD.n239 26.38
R454 VDD.n315 VDD.n313 26.38
R455 VDD.n315 VDD.n312 26.38
R456 VDD.n315 VDD.n314 26.38
R457 VDD.n390 VDD.n388 26.38
R458 VDD.n390 VDD.n387 26.38
R459 VDD.n390 VDD.n389 26.38
R460 VDD.n447 VDD.n445 26.38
R461 VDD.n447 VDD.n444 26.38
R462 VDD.n447 VDD.n446 26.38
R463 VDD.n522 VDD.n520 26.38
R464 VDD.n522 VDD.n519 26.38
R465 VDD.n522 VDD.n521 26.38
R466 VDD.n597 VDD.n595 26.38
R467 VDD.n597 VDD.n594 26.38
R468 VDD.n597 VDD.n596 26.38
R469 VDD.n654 VDD.n652 26.38
R470 VDD.n654 VDD.n651 26.38
R471 VDD.n654 VDD.n653 26.38
R472 VDD.n725 VDD.n723 26.38
R473 VDD.n725 VDD.n722 26.38
R474 VDD.n725 VDD.n724 26.38
R475 VDD.n1370 VDD.n1368 26.38
R476 VDD.n1370 VDD.n1367 26.38
R477 VDD.n1370 VDD.n1369 26.38
R478 VDD.n1313 VDD.n1311 26.38
R479 VDD.n1313 VDD.n1310 26.38
R480 VDD.n1313 VDD.n1312 26.38
R481 VDD.n1238 VDD.n1236 26.38
R482 VDD.n1238 VDD.n1235 26.38
R483 VDD.n1238 VDD.n1237 26.38
R484 VDD.n1163 VDD.n1161 26.38
R485 VDD.n1163 VDD.n1160 26.38
R486 VDD.n1163 VDD.n1162 26.38
R487 VDD.n1106 VDD.n1104 26.38
R488 VDD.n1106 VDD.n1103 26.38
R489 VDD.n1106 VDD.n1105 26.38
R490 VDD.n1031 VDD.n1029 26.38
R491 VDD.n1031 VDD.n1028 26.38
R492 VDD.n1031 VDD.n1030 26.38
R493 VDD.n956 VDD.n954 26.38
R494 VDD.n956 VDD.n953 26.38
R495 VDD.n956 VDD.n955 26.38
R496 VDD.n899 VDD.n897 26.38
R497 VDD.n899 VDD.n896 26.38
R498 VDD.n899 VDD.n898 26.38
R499 VDD.n748 VDD.n746 26.38
R500 VDD.n748 VDD.n745 26.38
R501 VDD.n748 VDD.n747 26.38
R502 VDD.n824 VDD.n823 26.38
R503 VDD.n824 VDD.n819 26.38
R504 VDD.n824 VDD.n817 26.38
R505 VDD.n824 VDD.n816 26.38
R506 VDD.n751 VDD.n743 22.915
R507 VDD.n23 VDD.n14 22.915
R508 VDD.n28 0Üª{Þ 20.457
R509 VDD.n93  20.457
R510 VDD.n136  20.457
R511 VDD.n193 0Üª{Þ 20.457
R512 VDD.n400  20.457
R513 VDD.n607  20.457
R514 VDD.n1336  20.457
R515 VDD.n1129 0Üª{Þ 20.457
R516 VDD.n922  20.457
R517 VDD.n39  17.9
R518 VDD.n82  17.9
R519 VDD.n149 0Üª{Þ 17.9
R520 VDD.n206  17.9
R521 VDD.n413 0Üª{Þ 17.9
R522 VDD.n620  17.9
R523 VDD.n1323 0Üª{Þ 17.9
R524 VDD.n1116 0Üª{Þ 17.9
R525 VDD.n909 0Üª{Þ 17.9
R526 VDD.n257 0Üª{Þ 15.343
R527 VDD.n332 0Üª{Þ 15.343
R528 VDD.n464  15.343
R529 VDD.n539  15.343
R530 VDD.n671 0Üª{Þ 15.343
R531 VDD.n1402  15.343
R532 VDD.n1270  15.343
R533 VDD.n1195 0Üª{Þ 15.343
R534 VDD.n1063 0Üª{Þ 15.343
R535 VDD.n988 0Üª{Þ 15.343
R536 VDD.n856  15.343
R537 VDD.n780 0Üª{Þ 15.343
R538 VDD.n743 VDD.n741 14.864
R539 VDD.n741 VDD.n739 14.864
R540 VDD.n739 VDD.n737 14.864
R541 VDD.n737 VDD.n735 14.864
R542 VDD.n735 VDD.n733 14.864
R543 VDD.n892 VDD.n890 14.864
R544 VDD.n890 VDD.n888 14.864
R545 VDD.n888 VDD.n886 14.864
R546 VDD.n886 VDD.n884 14.864
R547 VDD.n884 VDD.n882 14.864