* SPICE3 file created from TMRDFFQX1.ext - technology: sky130A

.subckt TMRDFFQX1 D CLK Q VDD GND
X0 GND a_3303_411.t6 a_14320_101.t0 GND sky130_fd_pr__nfet_01v8 ad=4.9019p pd=4.107u as=0p ps=0u w=0u l=0u
X1 VDD.t137 a_8731_187.t5 a_8861_1050.t4 PF;*V sky130_fd_pr__pfet_01v8 ad=0p pd=0u as=0p ps=0u w=2u l=0.15u
X2 a_3177_1050.t3 a_277_1050.t7 VDD.t92 °aI*V sky130_fd_pr__pfet_01v8 ad=0p pd=0u as=0p ps=0u w=2u l=0.15u
X3 VDD.t59 a_1845_1050.t5 a_147_187.t1  sky130_fd_pr__pfet_01v8 ad=0p pd=0u as=0p ps=0u w=2u l=0.15u
X4 a_11887_411.t1 a_11761_1050.t5 VDD.t139 VDD.t138 sky130_fd_pr__pfet_01v8 ad=0p pd=0u as=0p ps=0u w=2u l=0.15u
X5 VDD.t147 D.t0 a_9183_989.t1 |мя sky130_fd_pr__pfet_01v8 ad=0p pd=0u as=0p ps=0u w=2u l=0.15u
X6 VDD.t150 D.t1 a_4891_989.t1 |мя sky130_fd_pr__pfet_01v8 ad=0p pd=0u as=0p ps=0u w=2u l=0.15u
X7 VDD.t7 a_7469_1050.t5 a_7595_411.t1 |мя sky130_fd_pr__pfet_01v8 ad=0p pd=0u as=0p ps=0u w=2u l=0.15u
X8 GND a_8731_187.t8 a_8675_103.t0 GND sky130_fd_pr__nfet_01v8 ad=0p pd=0u as=0p ps=0u w=0u l=0u
X9 VDD.t112 CLK.t0 a_277_1050.t4  |мя sky130_fd_pr__pfet_01v8 ad=0p pd=0u as=0p ps=0u w=2u l=0.15u
X10 GND a_7469_1050.t6 a_8030_101.t0 GND sky130_fd_pr__nfet_01v8 ad=0p pd=0u as=0p ps=0u w=0u l=0u
X11 a_13757_1051.t3 a_7595_411.t6 a_13268_209.t5 VDD.t115 sky130_fd_pr__pfet_01v8 ad=0p pd=0u as=0p ps=0u w=2u l=0.15u
X12 a_3177_1050.t1 a_3303_411.t7 VDD.t21  |мя sky130_fd_pr__pfet_01v8 ad=0p pd=0u as=0p ps=0u w=2u l=0.15u
X13 VDD.t110 CLK.t1 a_147_187.t4 VDD.t109 sky130_fd_pr__pfet_01v8 ad=0p pd=0u as=0p ps=0u w=2u l=0.15u
X14 a_11887_411.t4 a_8731_187.t7 VDD.t135  |мя sky130_fd_pr__pfet_01v8 ad=0p pd=0u as=0p ps=0u w=2u l=0.15u
X15 VDD.t28 a_11887_411.t5 a_11761_1050.t0 р{мя sky130_fd_pr__pfet_01v8 ad=0p pd=0u as=0p ps=0u w=2u l=0.15u
X16 GND a_1845_1050.t6 a_2406_101.t0 GND sky130_fd_pr__nfet_01v8 ad=0p pd=0u as=0p ps=0u w=0u l=0u
X17 VDD.t108 CLK.t2 a_4439_187.t3  |мя sky130_fd_pr__pfet_01v8 ad=0p pd=0u as=0p ps=0u w=2u l=0.15u
X18 a_9183_989.t0 D.t2 VDD.t145 р{мя sky130_fd_pr__pfet_01v8 ad=0p pd=0u as=0p ps=0u w=2u l=0.15u
X19 GND a_8861_1050.t8 a_9658_101.t0 GND sky130_fd_pr__nfet_01v8 ad=0p pd=0u as=0p ps=0u w=0u l=0u
X20 a_3303_411.t4 a_3177_1050.t5 VDD.t167  |мя sky130_fd_pr__pfet_01v8 ad=0p pd=0u as=0p ps=0u w=2u l=0.15u
X21 VDD.t40 a_599_989.t5 a_277_1050.t1 р{мя sky130_fd_pr__pfet_01v8 ad=0p pd=0u as=0p ps=0u w=2u l=0.15u
X22 VDD.t156 a_277_1050.t9 a_599_989.t4  |мя sky130_fd_pr__pfet_01v8 ad=0p pd=0u as=0p ps=0u w=2u l=0.15u
X23 a_8731_187.t4 a_10429_1050.t5 VDD.t114 р{мя sky130_fd_pr__pfet_01v8 ad=0p pd=0u as=0p ps=0u w=2u l=0.15u
X24 a_4569_1050.t3 a_4891_989.t6 VDD.t73  |мя sky130_fd_pr__pfet_01v8 ad=0p pd=0u as=0p ps=0u w=2u l=0.15u
X25 a_13757_1051.t5 a_3303_411.t8 a_13268_209.t2 р{мя sky130_fd_pr__pfet_01v8 ad=0p pd=0u as=0p ps=0u w=2u l=0.15u
X26 VDD.t94 a_9183_989.t5 a_10429_1050.t1  |мя sky130_fd_pr__pfet_01v8 ad=0p pd=0u as=0p ps=0u w=2u l=0.15u
X27 VDD.t175 a_147_187.t6 a_3303_411.t1 р{мя sky130_fd_pr__pfet_01v8 ad=0p pd=0u as=0p ps=0u w=2u l=0.15u
X28 a_7595_411.t0 a_7469_1050.t7 VDD.t5  |мя sky130_fd_pr__pfet_01v8 ad=0p pd=0u as=0p ps=0u w=2u l=0.15u
X29 Q.t1 a_13268_209.t7 VDD.t48 р{мя sky130_fd_pr__pfet_01v8 ad=0p pd=0u as=0p ps=0u w=2u l=0.15u
X30 VDD.t32 a_4569_1050.t7 a_7469_1050.t0  |мя sky130_fd_pr__pfet_01v8 ad=0p pd=0u as=0p ps=0u w=2u l=0.15u
X31 a_4439_187.t2 CLK.t3 VDD.t106 р{мя sky130_fd_pr__pfet_01v8 ad=0p pd=0u as=0p ps=0u w=2u l=0.15u
X32 a_1845_1050.t1 a_147_187.t7 VDD.t56  |мя sky130_fd_pr__pfet_01v8 ad=0p pd=0u as=0p ps=0u w=2u l=0.15u
X33 a_8861_1050.t1 a_9183_989.t6 VDD.t84 р{мя sky130_fd_pr__pfet_01v8 ad=0p pd=0u as=0p ps=0u w=2u l=0.15u
X34 VDD.t34 a_4439_187.t5 a_4569_1050.t6  |мя sky130_fd_pr__pfet_01v8 ad=0p pd=0u as=0p ps=0u w=2u l=0.15u
X35 GND a_147_187.t10 a_91_103.t0 GND sky130_fd_pr__nfet_01v8 ad=0p pd=0u as=0p ps=0u w=0u l=0u
X36 a_6137_1050.t0 a_4439_187.t6 VDD.t3 р{мя sky130_fd_pr__pfet_01v8 ad=0p pd=0u as=0p ps=0u w=2u l=0.15u
X37 a_9183_989.t4 a_8861_1050.t7 VDD.t125  |мя sky130_fd_pr__pfet_01v8 ad=0p pd=0u as=0p ps=0u w=2u l=0.15u
X38 GND a_8861_1050.t10 a_11656_101.t0 GND sky130_fd_pr__nfet_01v8 ad=0p pd=0u as=0p ps=0u w=0u l=0u
X39 a_13093_1051.t7 a_3303_411.t9 a_13757_1051.t7 р{мя sky130_fd_pr__pfet_01v8 ad=0p pd=0u as=0p ps=0u w=2u l=0.15u
X40 a_11761_1050.t1 a_11887_411.t6 VDD.t77  |мя sky130_fd_pr__pfet_01v8 ad=0p pd=0u as=0p ps=0u w=2u l=0.15u
X41 a_3303_411.t0 a_147_187.t8 VDD.t165 р{мя sky130_fd_pr__pfet_01v8 ad=0p pd=0u as=0p ps=0u w=2u l=0.15u
X42 VDD.t143 a_7595_411.t8 a_13093_1051.t5  |мя sky130_fd_pr__pfet_01v8 ad=0p pd=0u as=0p ps=0u w=2u l=0.15u
X43 VDD.t160 D.t4 a_599_989.t1 р{мя sky130_fd_pr__pfet_01v8 ad=0p pd=0u as=0p ps=0u w=2u l=0.15u
X44 GND a_10429_1050.t6 a_10990_101.t0 GND sky130_fd_pr__nfet_01v8 ad=0p pd=0u as=0p ps=0u w=0u l=0u
X45 GND a_4439_187.t8 a_4383_103.t0 GND sky130_fd_pr__nfet_01v8 ad=0p pd=0u as=0p ps=0u w=0u l=0u
X46 a_13757_1051.t0 a_11887_411.t7 a_13093_1051.t3  |мя sky130_fd_pr__pfet_01v8 ad=0p pd=0u as=0p ps=0u w=2u l=0.15u
X47 a_8731_187.t3 CLK.t4 VDD.t104 р{мя sky130_fd_pr__pfet_01v8 ad=0p pd=0u as=0p ps=0u w=2u l=0.15u
X48 VDD.t133 a_8731_187.t10 a_10429_1050.t3  |мя sky130_fd_pr__pfet_01v8 ad=0p pd=0u as=0p ps=0u w=2u l=0.15u
X49 a_277_1050.t0 a_147_187.t9 VDD.t23 р{мя sky130_fd_pr__pfet_01v8 ad=0p pd=0u as=0p ps=0u w=2u l=0.15u
X50 a_4439_187.t1 a_6137_1050.t6 VDD.t81  |мя sky130_fd_pr__pfet_01v8 ad=0p pd=0u as=0p ps=0u w=2u l=0.15u
X51 VDD.t11 a_7595_411.t9 a_7469_1050.t3 р{мя sky130_fd_pr__pfet_01v8 ad=0p pd=0u as=0p ps=0u w=2u l=0.15u
X52 VDD.t102 CLK.t5 a_4569_1050.t1  |мя sky130_fd_pr__pfet_01v8 ad=0p pd=0u as=0p ps=0u w=2u l=0.15u
X53 VDD.t158 a_599_989.t7 a_1845_1050.t3 р{мя sky130_fd_pr__pfet_01v8 ad=0p pd=0u as=0p ps=0u w=2u l=0.15u
X54 a_11761_1050.t3 a_8861_1050.t9 VDD.t123  |мя sky130_fd_pr__pfet_01v8 ad=0p pd=0u as=0p ps=0u w=2u l=0.15u
X55 GND a_599_989.t8 a_1740_101.t0 GND sky130_fd_pr__nfet_01v8 ad=0p pd=0u as=0p ps=0u w=0u l=0u
X56 Q a_13268_209.t8 GND.t0 GND sky130_fd_pr__nfet_01v8 ad=1.791p pd=1.57u as=0p ps=0u w=0u l=0u
X57 GND a_4569_1050.t8 a_5366_101.t0 GND sky130_fd_pr__nfet_01v8 ad=0p pd=0u as=0p ps=0u w=0u l=0u
X58 VDD.t65 a_11887_411.t8 a_13093_1051.t1 р{мя sky130_fd_pr__pfet_01v8 ad=0p pd=0u as=0p ps=0u w=2u l=0.15u
X59 GND a_11887_411.t9 a_13654_101.t0 GND sky130_fd_pr__nfet_01v8 ad=0p pd=0u as=0p ps=0u w=0u l=0u
X60 a_4891_989.t0 D.t5 VDD.t15  |мя sky130_fd_pr__pfet_01v8 ad=0p pd=0u as=0p ps=0u w=2u l=0.15u
X61 a_13757_1051.t6 a_3303_411.t11 a_13093_1051.t6 р{мя sky130_fd_pr__pfet_01v8 ad=0p pd=0u as=0p ps=0u w=2u l=0.15u
X62 GND a_11887_411.t10 a_12988_101.t0 GND sky130_fd_pr__nfet_01v8 ad=0p pd=0u as=0p ps=0u w=0u l=0u
X63 a_277_1050.t3 CLK.t8 VDD.t100  |мя sky130_fd_pr__pfet_01v8 ad=0p pd=0u as=0p ps=0u w=2u l=0.15u
X64 VDD.t71 a_4891_989.t8 a_4569_1050.t2 р{мя sky130_fd_pr__pfet_01v8 ad=0p pd=0u as=0p ps=0u w=2u l=0.15u
X65 VDD.t25 a_277_1050.t10 a_3177_1050.t2  |мя sky130_fd_pr__pfet_01v8 ad=0p pd=0u as=0p ps=0u w=2u l=0.15u
X66 a_147_187.t3 CLK.t9 VDD.t96 р{мя sky130_fd_pr__pfet_01v8 ad=0p pd=0u as=0p ps=0u w=2u l=0.15u
X67 VDD.t173 a_11761_1050.t6 a_11887_411.t0  |мя sky130_fd_pr__pfet_01v8 ad=0p pd=0u as=0p ps=0u w=2u l=0.15u
X68 GND a_3177_1050.t6 a_3738_101.t0 GND sky130_fd_pr__nfet_01v8 ad=0p pd=0u as=0p ps=0u w=0u l=0u
X69 GND a_4569_1050.t11 a_7364_101.t0 GND sky130_fd_pr__nfet_01v8 ad=0p pd=0u as=0p ps=0u w=0u l=0u
X70 a_4891_989.t3 a_4569_1050.t9 VDD.t17 р{мя sky130_fd_pr__pfet_01v8 ad=0p pd=0u as=0p ps=0u w=2u l=0.15u
X71 GND a_9183_989.t8 a_10324_101.t0 GND sky130_fd_pr__nfet_01v8 ad=0p pd=0u as=0p ps=0u w=0u l=0u
X72 a_7595_411.t3 a_4439_187.t10 VDD.t152  |мя sky130_fd_pr__pfet_01v8 ad=0p pd=0u as=0p ps=0u w=2u l=0.15u
X73 a_277_1050.t6 a_599_989.t9 VDD.t171 р{мя sky130_fd_pr__pfet_01v8 ad=0p pd=0u as=0p ps=0u w=2u l=0.15u
X74 a_599_989.t3 a_277_1050.t11 VDD.t52  |мя sky130_fd_pr__pfet_01v8 ad=0p pd=0u as=0p ps=0u w=2u l=0.15u
X75 a_8861_1050.t5 a_8731_187.t11 VDD.t131 р{мя sky130_fd_pr__pfet_01v8 ad=0p pd=0u as=0p ps=0u w=2u l=0.15u
X76 a_13268_209.t3 a_3303_411.t12 a_13757_1051.t4  |мя sky130_fd_pr__pfet_01v8 ad=0p pd=0u as=0p ps=0u w=2u l=0.15u
X77 VDD.t63 CLK.t12 a_8731_187.t1 р{мя sky130_fd_pr__pfet_01v8 ad=0p pd=0u as=0p ps=0u w=2u l=0.15u
X78 a_10429_1050.t0 a_9183_989.t7 VDD.t79  |мя sky130_fd_pr__pfet_01v8 ad=0p pd=0u as=0p ps=0u w=2u l=0.15u
X79 a_7469_1050.t1 a_4569_1050.t10 VDD.t42 р{мя sky130_fd_pr__pfet_01v8 ad=0p pd=0u as=0p ps=0u w=2u l=0.15u
X80 a_147_187.t0 a_1845_1050.t7 VDD.t154  |мя sky130_fd_pr__pfet_01v8 ad=0p pd=0u as=0p ps=0u w=2u l=0.15u
X81 VDD.t75 a_3303_411.t13 a_3177_1050.t4 р{мя sky130_fd_pr__pfet_01v8 ad=0p pd=0u as=0p ps=0u w=2u l=0.15u
X82 VDD.t129 a_8731_187.t12 a_11887_411.t3  |мя sky130_fd_pr__pfet_01v8 ad=0p pd=0u as=0p ps=0u w=2u l=0.15u
X83 VDD.t90 CLK.t14 a_8861_1050.t3 р{мя sky130_fd_pr__pfet_01v8 ad=0p pd=0u as=0p ps=0u w=2u l=0.15u
X84 GND a_277_1050.t12 a_1074_101.t0 GND sky130_fd_pr__nfet_01v8 ad=0p pd=0u as=0p ps=0u w=0u l=0u
X85 a_4569_1050.t5 a_4439_187.t11 VDD.t162  |мя sky130_fd_pr__pfet_01v8 ad=0p pd=0u as=0p ps=0u w=2u l=0.15u
X86 VDD.t69 a_4891_989.t9 a_6137_1050.t4 р{мя sky130_fd_pr__pfet_01v8 ad=0p pd=0u as=0p ps=0u w=2u l=0.15u
X87 VDD.t121 a_8861_1050.t11 a_11761_1050.t2  |мя sky130_fd_pr__pfet_01v8 ad=0p pd=0u as=0p ps=0u w=2u l=0.15u
X88 VDD.t61 a_3177_1050.t7 a_3303_411.t3 р{мя sky130_fd_pr__pfet_01v8 ad=0p pd=0u as=0p ps=0u w=2u l=0.15u
X89 a_13093_1051.t4 a_7595_411.t11 VDD.t141  |мя sky130_fd_pr__pfet_01v8 ad=0p pd=0u as=0p ps=0u w=2u l=0.15u
X90 a_599_989.t0 D.t7 VDD.t9 р{мя sky130_fd_pr__pfet_01v8 ad=0p pd=0u as=0p ps=0u w=2u l=0.15u
X91 VDD.t37 a_10429_1050.t7 a_8731_187.t0  |мя sky130_fd_pr__pfet_01v8 ad=0p pd=0u as=0p ps=0u w=2u l=0.15u
X92 a_13268_209.t6 a_7595_411.t12 a_13757_1051.t2 р{мя sky130_fd_pr__pfet_01v8 ad=0p pd=0u as=0p ps=0u w=2u l=0.15u
X93 a_10429_1050.t2 a_8731_187.t13 VDD.t127 0|мя sky130_fd_pr__pfet_01v8 ad=0p pd=0u as=0p ps=0u w=2u l=0.15u
X94 GND a_11761_1050.t7 a_12322_101.t0 GND sky130_fd_pr__nfet_01v8 ad=0p pd=0u as=0p ps=0u w=0u l=0u
X95 VDD.t54 a_13268_209.t9 Q.t0  sky130_fd_pr__pfet_01v8 ad=0p pd=0u as=0p ps=0u w=2u l=0.15u
X96 a_7469_1050.t2 a_7595_411.t13 VDD.t19 0|мя sky130_fd_pr__pfet_01v8 ad=0p pd=0u as=0p ps=0u w=2u l=0.15u
X97 VDD.t1 a_9183_989.t10 a_8861_1050.t0  sky130_fd_pr__pfet_01v8 ad=0p pd=0u as=0p ps=0u w=2u l=0.15u
X98 a_4569_1050.t0 CLK.t16 VDD.t88 0|мя sky130_fd_pr__pfet_01v8 ad=0p pd=0u as=0p ps=0u w=2u l=0.15u
X99 VDD.t13 a_4439_187.t12 a_6137_1050.t1  sky130_fd_pr__pfet_01v8 ad=0p pd=0u as=0p ps=0u w=2u l=0.15u
X100 VDD.t119 a_8861_1050.t12 a_9183_989.t3 0|мя sky130_fd_pr__pfet_01v8 ad=0p pd=0u as=0p ps=0u w=2u l=0.15u
X101 a_1845_1050.t4 a_599_989.t10 VDD.t169  sky130_fd_pr__pfet_01v8 ad=0p pd=0u as=0p ps=0u w=2u l=0.15u
X102 a_8861_1050.t2 CLK.t17 VDD.t86 0|мя sky130_fd_pr__pfet_01v8 ad=0p pd=0u as=0p ps=0u w=2u l=0.15u
X103 GND a_6137_1050.t5 a_6698_101.t0 GND sky130_fd_pr__nfet_01v8 ad=0p pd=0u as=0p ps=0u w=0u l=0u
X104 a_13093_1051.t0 a_11887_411.t12 VDD.t46  sky130_fd_pr__pfet_01v8 ad=0p pd=0u as=0p ps=0u w=2u l=0.15u
X105 GND a_277_1050.t8 a_3072_101.t0 GND sky130_fd_pr__nfet_01v8 ad=0p pd=0u as=0p ps=0u w=0u l=0u
X106 VDD.t44 a_147_187.t11 a_1845_1050.t0 0|мя sky130_fd_pr__pfet_01v8 ad=0p pd=0u as=0p ps=0u w=2u l=0.15u
X107 a_6137_1050.t3 a_4891_989.t10 VDD.t67  sky130_fd_pr__pfet_01v8 ad=0p pd=0u as=0p ps=0u w=2u l=0.15u
X108 VDD.t117 a_4569_1050.t12 a_4891_989.t4 0|мя sky130_fd_pr__pfet_01v8 ad=0p pd=0u as=0p ps=0u w=2u l=0.15u
X109 a_13093_1051.t2 a_11887_411.t13 a_13757_1051.t1  sky130_fd_pr__pfet_01v8 ad=0p pd=0u as=0p ps=0u w=2u l=0.15u
X110 VDD.t98 a_4439_187.t13 a_7595_411.t2 0|мя sky130_fd_pr__pfet_01v8 ad=0p pd=0u as=0p ps=0u w=2u l=0.15u
X111 GND a_4891_989.t5 a_6032_101.t0 GND sky130_fd_pr__nfet_01v8 ad=0p pd=0u as=0p ps=0u w=0u l=0u
X112 VDD.t50 a_147_187.t13 a_277_1050.t2  sky130_fd_pr__pfet_01v8 ad=0p pd=0u as=0p ps=0u w=2u l=0.15u
X113 VDD.t30 a_6137_1050.t7 a_4439_187.t0 0|мя sky130_fd_pr__pfet_01v8 ad=0p pd=0u as=0p ps=0u w=2u l=0.15u
C0 VDD CLK 7.71fF
C1 VDD D 0.97fF
C2 CLK D 0.45fF
C3 VDD Q 1.05fF
R0 a_8731_187.n7 a_8731_187.t5 512.525
R1 a_8731_187.n5 a_8731_187.t10 472.359
R2 a_8731_187.n3 a_8731_187.t12 472.359
R3 a_8731_187.n8 a_8731_187.t8 417.109
R4 a_8731_187.n5 a_8731_187.t13 384.527
R5 a_8731_187.n3 a_8731_187.t7 384.527
R6 a_8731_187.n7 a_8731_187.t11 371.139
R7 a_8731_187.n6 a_8731_187.t6 370.613
R8 a_8731_187.n4 a_8731_187.t9 370.613
R9 a_8731_187.n13 a_8731_187.n11 367.82
R10 a_8731_187.n8 a_8731_187.n7 179.837
R11 a_8731_187.n2 a_8731_187.n1 157.964
R12 a_8731_187.n6 a_8731_187.n5 127.096
R13 a_8731_187.n4 a_8731_187.n3 127.096
R14 a_8731_187.n11 a_8731_187.n2 104.282
R15 a_8731_187.n2 a_8731_187.n0 91.706
R16 a_8731_187.n13 a_8731_187.n12 15.218
R17 a_8731_187.n0 a_8731_187.t1 14.282
R18 a_8731_187.n0 a_8731_187.t3 14.282
R19 a_8731_187.n1 a_8731_187.t0 14.282
R20 a_8731_187.n1 a_8731_187.t4 14.282
R21 a_8731_187.n14 a_8731_187.n13 12.014
R22 a_8731_187.n9 a_8731_187.n8 11.134
R23 a_8731_187.n10 a_8731_187.n4 8.957
R24 a_8731_187.n9 a_8731_187.n6 4.65
R25 a_8731_187.n11 a_8731_187.n10 4.65
R26 a_8731_187.n10 a_8731_187.n9 2.947
R27 a_8861_1050.n7 a_8861_1050.t12 480.392
R28 a_8861_1050.n5 a_8861_1050.t11 480.392
R29 a_8861_1050.n7 a_8861_1050.t7 403.272
R30 a_8861_1050.n5 a_8861_1050.t9 403.272
R31 a_8861_1050.n8 a_8861_1050.t8 385.063
R32 a_8861_1050.n6 a_8861_1050.t10 385.063
R33 a_8861_1050.n12 a_8861_1050.n10 342.597
R34 a_8861_1050.n3 a_8861_1050.n2 161.352
R35 a_8861_1050.n10 a_8861_1050.n4 151.34
R36 a_8861_1050.n8 a_8861_1050.n7 143.429
R37 a_8861_1050.n6 a_8861_1050.n5 143.429
R38 a_8861_1050.n4 a_8861_1050.n0 95.095
R39 a_8861_1050.n3 a_8861_1050.n1 95.095
R40 a_8861_1050.n4 a_8861_1050.n3 66.258
R41 a_8861_1050.n12 a_8861_1050.n11 15.218
R42 a_8861_1050.n0 a_8861_1050.t0 14.282
R43 a_8861_1050.n0 a_8861_1050.t1 14.282
R44 a_8861_1050.n1 a_8861_1050.t3 14.282
R45 a_8861_1050.n1 a_8861_1050.t2 14.282
R46 a_8861_1050.n2 a_8861_1050.t4 14.282
R47 a_8861_1050.n2 a_8861_1050.t5 14.282
R48 a_8861_1050.n13 a_8861_1050.n12 12.014
R49 a_8861_1050.n9 a_8861_1050.n6 11.95
R50 a_8861_1050.n10 a_8861_1050.n9 5.965
R51 a_8861_1050.n9 a_8861_1050.n8 4.65
R52 VDD.n754 VDD.n743 144.705
R53 VDD.n811 VDD.n804 144.705
R54 VDD.n868 VDD.n861 144.705
R55 VDD.n925 VDD.n918 144.705
R56 VDD.n982 VDD.n975 144.705
R57 VDD.n1039 VDD.n1032 144.705
R58 VDD.n1114 VDD.n1107 144.705
R59 VDD.n1171 VDD.n1164 144.705
R60 VDD.n1228 VDD.n1221 144.705
R61 VDD.n646 VDD.n639 144.705
R62 VDD.n1285 VDD.n1278 144.705
R63 VDD.n589 VDD.n582 144.705
R64 VDD.n514 VDD.n507 144.705
R65 VDD.n457 VDD.n450 144.705
R66 VDD.n400 VDD.n393 144.705
R67 VDD.n343 VDD.n336 144.705
R68 VDD.n286 VDD.n279 144.705
R69 VDD.n229 VDD.n222 144.705
R70 VDD.n172 VDD.n165 144.705
R71 VDD.n119 VDD.n112 144.705
R72 VDD.n66 VDD.n55 144.705
R73 VDD.n720 VDD.t40 143.754
R74 VDD.n1081 VDD.t71 143.754
R75 VDD.n523 VDD.t1 143.754
R76 VDD.n779 VDD.t160 143.754
R77 VDD.n836 VDD.t44 143.754
R78 VDD.n893 VDD.t110 143.754
R79 VDD.n950 VDD.t75 143.754
R80 VDD.n1007 VDD.t175 143.754
R81 VDD.n1139 VDD.t150 143.754
R82 VDD.n1196 VDD.t13 143.754
R83 VDD.n1253 VDD.t108 143.754
R84 VDD.n649 VDD.t11 143.754
R85 VDD.n592 VDD.t98 143.754
R86 VDD.n460 VDD.t147 143.754
R87 VDD.n403 VDD.t133 143.754
R88 VDD.n346 VDD.t63 143.754
R89 VDD.n289 VDD.t28 143.754
R90 VDD.n232 VDD.t129 143.754
R91 VDD.n197 VDD.t46 135.539
R92 VDD.n175 VDD.t143 135.539
R93 VDD.n685 VDD.t23 135.17
R94 VDD.n757 VDD.t52 135.17
R95 VDD.n814 VDD.t169 135.17
R96 VDD.n871 VDD.t154 135.17
R97 VDD.n928 VDD.t92 135.17
R98 VDD.n985 VDD.t167 135.17
R99 VDD.n1046 VDD.t162 135.17
R100 VDD.n1117 VDD.t17 135.17
R101 VDD.n1174 VDD.t67 135.17
R102 VDD.n1231 VDD.t81 135.17
R103 VDD.n1288 VDD.t42 135.17
R104 VDD.n614 VDD.t5 135.17
R105 VDD.n553 VDD.t131 135.17
R106 VDD.n482 VDD.t125 135.17
R107 VDD.n425 VDD.t79 135.17
R108 VDD.n368 VDD.t114 135.17
R109 VDD.n311 VDD.t123 135.17
R110 VDD.n254 VDD.t139 135.17
R111 VDD.n35 VDD.t48 135.17
R112 VDD.n24 VDD.t54 135.17
R113 VDD.n185 VDD.n184 129.849
R114 VDD.n695 VDD.n694 129.472
R115 VDD.n711 VDD.n710 129.472
R116 VDD.n771 VDD.n770 129.472
R117 VDD.n828 VDD.n827 129.472
R118 VDD.n885 VDD.n884 129.472
R119 VDD.n942 VDD.n941 129.472
R120 VDD.n999 VDD.n998 129.472
R121 VDD.n1056 VDD.n1055 129.472
R122 VDD.n1072 VDD.n1071 129.472
R123 VDD.n1131 VDD.n1130 129.472
R124 VDD.n1188 VDD.n1187 129.472
R125 VDD.n1245 VDD.n1244 129.472
R126 VDD.n1302 VDD.n1301 129.472
R127 VDD.n602 VDD.n601 129.472
R128 VDD.n544 VDD.n543 129.472
R129 VDD.n532 VDD.n531 129.472
R130 VDD.n470 VDD.n469 129.472
R131 VDD.n413 VDD.n412 129.472
R132 VDD.n356 VDD.n355 129.472
R133 VDD.n299 VDD.n298 129.472
R134 VDD.n242 VDD.n241 129.472
R135 VDD.n51 VDD.n50 92.5
R136 VDD.n49 VDD.n48 92.5
R137 VDD.n47 VDD.n46 92.5
R138 VDD.n45 VDD.n44 92.5
R139 VDD.n53 VDD.n52 92.5
R140 VDD.n108 VDD.n107 92.5
R141 VDD.n106 VDD.n105 92.5
R142 VDD.n104 VDD.n103 92.5
R143 VDD.n102 VDD.n101 92.5
R144 VDD.n110 VDD.n109 92.5
R145 VDD.n161 VDD.n160 92.5
R146 VDD.n159 VDD.n158 92.5
R147 VDD.n157 VDD.n156 92.5
R148 VDD.n155 VDD.n154 92.5
R149 VDD.n163 VDD.n162 92.5
R150 VDD.n218 VDD.n217 92.5
R151 VDD.n216 VDD.n215 92.5
R152 VDD.n214 VDD.n213 92.5
R153 VDD.n212 VDD.n211 92.5
R154 VDD.n220 VDD.n219 92.5
R155 VDD.n275 VDD.n274 92.5
R156 VDD.n273 VDD.n272 92.5
R157 VDD.n271 VDD.n270 92.5
R158 VDD.n269 VDD.n268 92.5
R159 VDD.n277 VDD.n276 92.5
R160 VDD.n332 VDD.n331 92.5
R161 VDD.n330 VDD.n329 92.5
R162 VDD.n328 VDD.n327 92.5
R163 VDD.n326 VDD.n325 92.5
R164 VDD.n334 VDD.n333 92.5
R165 VDD.n389 VDD.n388 92.5
R166 VDD.n387 VDD.n386 92.5
R167 VDD.n385 VDD.n384 92.5
R168 VDD.n383 VDD.n382 92.5
R169 VDD.n391 VDD.n390 92.5
R170 VDD.n446 VDD.n445 92.5
R171 VDD.n444 VDD.n443 92.5
R172 VDD.n442 VDD.n441 92.5
R173 VDD.n440 VDD.n439 92.5
R174 VDD.n448 VDD.n447 92.5
R175 VDD.n503 VDD.n502 92.5
R176 VDD.n501 VDD.n500 92.5
R177 VDD.n499 VDD.n498 92.5
R178 VDD.n497 VDD.n496 92.5
R179 VDD.n505 VDD.n504 92.5
R180 VDD.n578 VDD.n577 92.5
R181 VDD.n576 VDD.n575 92.5
R182 VDD.n574 VDD.n573 92.5
R183 VDD.n572 VDD.n571 92.5
R184 VDD.n580 VDD.n579 92.5
R185 VDD.n635 VDD.n634 92.5
R186 VDD.n633 VDD.n632 92.5
R187 VDD.n631 VDD.n630 92.5
R188 VDD.n629 VDD.n628 92.5
R189 VDD.n637 VDD.n636 92.5
R190 VDD.n1274 VDD.n1273 92.5
R191 VDD.n1272 VDD.n1271 92.5
R192 VDD.n1270 VDD.n1269 92.5
R193 VDD.n1268 VDD.n1267 92.5
R194 VDD.n1276 VDD.n1275 92.5
R195 VDD.n1217 VDD.n1216 92.5
R196 VDD.n1215 VDD.n1214 92.5
R197 VDD.n1213 VDD.n1212 92.5
R198 VDD.n1211 VDD.n1210 92.5
R199 VDD.n1219 VDD.n1218 92.5
R200 VDD.n1160 VDD.n1159 92.5
R201 VDD.n1158 VDD.n1157 92.5
R202 VDD.n1156 VDD.n1155 92.5
R203 VDD.n1154 VDD.n1153 92.5
R204 VDD.n1162 VDD.n1161 92.5
R205 VDD.n1103 VDD.n1102 92.5
R206 VDD.n1101 VDD.n1100 92.5
R207 VDD.n1099 VDD.n1098 92.5
R208 VDD.n1097 VDD.n1096 92.5
R209 VDD.n1105 VDD.n1104 92.5
R210 VDD.n1028 VDD.n1027 92.5
R211 VDD.n1026 VDD.n1025 92.5
R212 VDD.n1024 VDD.n1023 92.5
R213 VDD.n1022 VDD.n1021 92.5
R214 VDD.n1030 VDD.n1029 92.5
R215 VDD.n971 VDD.n970 92.5
R216 VDD.n969 VDD.n968 92.5
R217 VDD.n967 VDD.n966 92.5
R218 VDD.n965 VDD.n964 92.5
R219 VDD.n973 VDD.n972 92.5
R220 VDD.n914 VDD.n913 92.5
R221 VDD.n912 VDD.n911 92.5
R222 VDD.n910 VDD.n909 92.5
R223 VDD.n908 VDD.n907 92.5
R224 VDD.n916 VDD.n915 92.5
R225 VDD.n857 VDD.n856 92.5
R226 VDD.n855 VDD.n854 92.5
R227 VDD.n853 VDD.n852 92.5
R228 VDD.n851 VDD.n850 92.5
R229 VDD.n859 VDD.n858 92.5
R230 VDD.n800 VDD.n799 92.5
R231 VDD.n798 VDD.n797 92.5
R232 VDD.n796 VDD.n795 92.5
R233 VDD.n794 VDD.n793 92.5
R234 VDD.n802 VDD.n801 92.5
R235 VDD.n739 VDD.n738 92.5
R236 VDD.n737 VDD.n736 92.5
R237 VDD.n735 VDD.n734 92.5
R238 VDD.n733 VDD.n732 92.5
R239 VDD.n741 VDD.n740 92.5
R240 VDD.n669 VDD.n668 92.5
R241 VDD.n667 VDD.n666 92.5
R242 VDD.n665 VDD.n664 92.5
R243 VDD.n663 VDD.n662 92.5
R244 VDD.n671 VDD.n670 92.5
R245 VDD.n14 VDD.n1 92.5
R246 VDD.n5 VDD.n4 92.5
R247 VDD.n7 VDD.n6 92.5
R248 VDD.n9 VDD.n8 92.5
R249 VDD.n11 VDD.n10 92.5
R250 VDD.n13 VDD.n12 92.5
R251 VDD.n21 VDD.n20 92.059
R252 VDD.n65 VDD.n64 92.059
R253 VDD.n118 VDD.n117 92.059
R254 VDD.n171 VDD.n170 92.059
R255 VDD.n228 VDD.n227 92.059
R256 VDD.n285 VDD.n284 92.059
R257 VDD.n342 VDD.n341 92.059
R258 VDD.n399 VDD.n398 92.059
R259 VDD.n456 VDD.n455 92.059
R260 VDD.n513 VDD.n512 92.059
R261 VDD.n588 VDD.n587 92.059
R262 VDD.n645 VDD.n644 92.059
R263 VDD.n1284 VDD.n1283 92.059
R264 VDD.n1227 VDD.n1226 92.059
R265 VDD.n1170 VDD.n1169 92.059
R266 VDD.n1113 VDD.n1112 92.059
R267 VDD.n1038 VDD.n1037 92.059
R268 VDD.n981 VDD.n980 92.059
R269 VDD.n924 VDD.n923 92.059
R270 VDD.n867 VDD.n866 92.059
R271 VDD.n810 VDD.n809 92.059
R272 VDD.n753 VDD.n752 92.059
R273 VDD.n677 VDD.n676 92.059
R274 VDD.n20 VDD.n16 67.194
R275 VDD.n20 VDD.n17 67.194
R276 VDD.n20 VDD.n18 67.194
R277 VDD.n20 VDD.n19 67.194
R278 VDD.n661 VDD.n660 44.141
R279 VDD.n792 VDD.n791 44.141
R280 VDD.n849 VDD.n848 44.141
R281 VDD.n906 VDD.n905 44.141
R282 VDD.n963 VDD.n962 44.141
R283 VDD.n1020 VDD.n1019 44.141
R284 VDD.n1095 VDD.n1094 44.141
R285 VDD.n1152 VDD.n1151 44.141
R286 VDD.n1209 VDD.n1208 44.141
R287 VDD.n1266 VDD.n1265 44.141
R288 VDD.n627 VDD.n626 44.141
R289 VDD.n570 VDD.n569 44.141
R290 VDD.n495 VDD.n494 44.141
R291 VDD.n438 VDD.n437 44.141
R292 VDD.n381 VDD.n380 44.141
R293 VDD.n324 VDD.n323 44.141
R294 VDD.n267 VDD.n266 44.141
R295 VDD.n210 VDD.n209 44.141
R296 VDD.n153 VDD.n152 44.141
R297 VDD.n100 VDD.n99 44.141
R298 VDD.n5 VDD.n3 44.141
R299 VDD.n791 VDD.n789 44.107
R300 VDD.n848 VDD.n846 44.107
R301 VDD.n905 VDD.n903 44.107
R302 VDD.n962 VDD.n960 44.107
R303 VDD.n1019 VDD.n1017 44.107
R304 VDD.n1094 VDD.n1092 44.107
R305 VDD.n1151 VDD.n1149 44.107
R306 VDD.n1208 VDD.n1206 44.107
R307 VDD.n1265 VDD.n1263 44.107
R308 VDD.n626 VDD.n624 44.107
R309 VDD.n569 VDD.n567 44.107
R310 VDD.n494 VDD.n492 44.107
R311 VDD.n437 VDD.n435 44.107
R312 VDD.n380 VDD.n378 44.107
R313 VDD.n323 VDD.n321 44.107
R314 VDD.n266 VDD.n264 44.107
R315 VDD.n209 VDD.n207 44.107
R316 VDD.n152 VDD.n150 44.107
R317 VDD.n99 VDD.n97 44.107
R318 VDD.n660 VDD.n658 44.107
R319 VDD.n3 VDD.n2 44.107
R320 VDD.n25  43.472
R321 VDD.n33 р{мя 43.472
R322 VDD.n20 VDD.n15 41.052
R323 VDD.n59 VDD.n57 39.742
R324 VDD.n59 VDD.n58 39.742
R325 VDD.n61 VDD.n60 39.742
R326 VDD.n114 VDD.n113 39.742
R327 VDD.n167 VDD.n166 39.742
R328 VDD.n224 VDD.n223 39.742
R329 VDD.n281 VDD.n280 39.742
R330 VDD.n338 VDD.n337 39.742
R331 VDD.n395 VDD.n394 39.742
R332 VDD.n452 VDD.n451 39.742
R333 VDD.n509 VDD.n508 39.742
R334 VDD.n584 VDD.n583 39.742
R335 VDD.n641 VDD.n640 39.742
R336 VDD.n1280 VDD.n1279 39.742
R337 VDD.n1223 VDD.n1222 39.742
R338 VDD.n1166 VDD.n1165 39.742
R339 VDD.n1109 VDD.n1108 39.742
R340 VDD.n1034 VDD.n1033 39.742
R341 VDD.n977 VDD.n976 39.742
R342 VDD.n920 VDD.n919 39.742
R343 VDD.n863 VDD.n862 39.742
R344 VDD.n806 VDD.n805 39.742
R345 VDD.n673 VDD.n672 39.742
R346 VDD.n751 VDD.n748 39.742
R347 VDD.n751 VDD.n750 39.742
R348 VDD.n747 VDD.n746 39.742
R349 VDD.n99 VDD.n98 38
R350 VDD.n152 VDD.n151 38
R351 VDD.n209 VDD.n208 38
R352 VDD.n266 VDD.n265 38
R353 VDD.n323 VDD.n322 38
R354 VDD.n380 VDD.n379 38
R355 VDD.n437 VDD.n436 38
R356 VDD.n494 VDD.n493 38
R357 VDD.n569 VDD.n568 38
R358 VDD.n626 VDD.n625 38
R359 VDD.n1265 VDD.n1264 38
R360 VDD.n1208 VDD.n1207 38
R361 VDD.n1151 VDD.n1150 38
R362 VDD.n1094 VDD.n1093 38
R363 VDD.n1019 VDD.n1018 38
R364 VDD.n962 VDD.n961 38
R365 VDD.n905 VDD.n904 38
R366 VDD.n848 VDD.n847 38
R367 VDD.n791 VDD.n790 38
R368 VDD.n660 VDD.n659 38
R369 VDD.n789 VDD.n788 36.774
R370 VDD.n846 VDD.n845 36.774
R371 VDD.n903 VDD.n902 36.774
R372 VDD.n960 VDD.n959 36.774
R373 VDD.n1017 VDD.n1016 36.774
R374 VDD.n1092 VDD.n1091 36.774
R375 VDD.n1149 VDD.n1148 36.774
R376 VDD.n1206 VDD.n1205 36.774
R377 VDD.n1263 VDD.n1262 36.774
R378 VDD.n624 VDD.n623 36.774
R379 VDD.n567 VDD.n566 36.774
R380 VDD.n492 VDD.n491 36.774
R381 VDD.n435 VDD.n434 36.774
R382 VDD.n378 VDD.n377 36.774
R383 VDD.n321 VDD.n320 36.774
R384 VDD.n264 VDD.n263 36.774
R385 VDD.n207 VDD.n206 36.774
R386 VDD.n150 VDD.n149 36.774
R387 VDD.n97 VDD.n96 36.774
R388 VDD.n57 VDD.n56 36.774
R389 VDD.n750 VDD.n749 36.774
R390 VDD.n525  35.8
R391 VDD.n1075 а+V 35.8
R392 VDD.n714 р{мя 35.8
R393 VDD.n549 р{мя 33.243
R394 VDD.n1051  |мя 33.243
R395 VDD.n690 •;*V 33.243
R396 VDD.n1 VDD.n0 30.923
R397 VDD.n64 VDD.n62 26.38
R398 VDD.n64 VDD.n61 26.38
R399 VDD.n64 VDD.n59 26.38
R400 VDD.n64 VDD.n63 26.38
R401 VDD.n117 VDD.n115 26.38
R402 VDD.n117 VDD.n114 26.38
R403 VDD.n117 VDD.n116 26.38
R404 VDD.n170 VDD.n168 26.38
R405 VDD.n170 VDD.n167 26.38
R406 VDD.n170 VDD.n169 26.38
R407 VDD.n227 VDD.n225 26.38
R408 VDD.n227 VDD.n224 26.38
R409 VDD.n227 VDD.n226 26.38
R410 VDD.n284 VDD.n282 26.38
R411 VDD.n284 VDD.n281 26.38
R412 VDD.n284 VDD.n283 26.38
R413 VDD.n341 VDD.n339 26.38
R414 VDD.n341 VDD.n338 26.38
R415 VDD.n341 VDD.n340 26.38
R416 VDD.n398 VDD.n396 26.38
R417 VDD.n398 VDD.n395 26.38
R418 VDD.n398 VDD.n397 26.38
R419 VDD.n455 VDD.n453 26.38
R420 VDD.n455 VDD.n452 26.38
R421 VDD.n455 VDD.n454 26.38
R422 VDD.n512 VDD.n510 26.38
R423 VDD.n512 VDD.n509 26.38
R424 VDD.n512 VDD.n511 26.38
R425 VDD.n587 VDD.n585 26.38
R426 VDD.n587 VDD.n584 26.38
R427 VDD.n587 VDD.n586 26.38
R428 VDD.n644 VDD.n642 26.38
R429 VDD.n644 VDD.n641 26.38
R430 VDD.n644 VDD.n643 26.38
R431 VDD.n1283 VDD.n1281 26.38
R432 VDD.n1283 VDD.n1280 26.38
R433 VDD.n1283 VDD.n1282 26.38
R434 VDD.n1226 VDD.n1224 26.38
R435 VDD.n1226 VDD.n1223 26.38
R436 VDD.n1226 VDD.n1225 26.38
R437 VDD.n1169 VDD.n1167 26.38
R438 VDD.n1169 VDD.n1166 26.38
R439 VDD.n1169 VDD.n1168 26.38
R440 VDD.n1112 VDD.n1110 26.38
R441 VDD.n1112 VDD.n1109 26.38
R442 VDD.n1112 VDD.n1111 26.38
R443 VDD.n1037 VDD.n1035 26.38
R444 VDD.n1037 VDD.n1034 26.38
R445 VDD.n1037 VDD.n1036 26.38
R446 VDD.n980 VDD.n978 26.38
R447 VDD.n980 VDD.n977 26.38
R448 VDD.n980 VDD.n979 26.38
R449 VDD.n923 VDD.n921 26.38
R450 VDD.n923 VDD.n920 26.38
R451 VDD.n923 VDD.n922 26.38
R452 VDD.n866 VDD.n864 26.38
R453 VDD.n866 VDD.n863 26.38
R454 VDD.n866 VDD.n865 26.38
R455 VDD.n809 VDD.n807 26.38
R456 VDD.n809 VDD.n806 26.38
R457 VDD.n809 VDD.n808 26.38
R458 VDD.n676 VDD.n674 26.38
R459 VDD.n676 VDD.n673 26.38
R460 VDD.n676 VDD.n675 26.38
R461 VDD.n752 VDD.n751 26.38
R462 VDD.n752 VDD.n747 26.38
R463 VDD.n752 VDD.n745 26.38
R464 VDD.n752 VDD.n744 26.38
R465 VDD.n679 VDD.n671 22.915
R466 VDD.n23 VDD.n14 22.915
R467 VDD.n73 VDD.t115 20.457
R468 VDD.n137  |мя 20.457
R469 VDD.n180  |мя 20.457
R470 VDD.n237  |мя 20.457
R471 VDD.n294 `[ґ*V 20.457
R472 VDD.n351 р{мя 20.457
R473 VDD.n408  |мя 20.457
R474 VDD.n465 |мя 20.457
R475 VDD.n597 0|мя 20.457
R476 VDD.n654 р{мя 20.457
R477 VDD.n1249  |мя 20.457
R478 VDD.n1192  20.457
R479 VDD.n1135 |мя 20.457
R480 VDD.n1003 р{мя 20.457
R481 VDD.n946 р{мя 20.457
R482 VDD.n889 VDD.t109 20.457
R483 VDD.n832 0|мя 20.457
R484 VDD.n775 р{мя 20.457
R485 VDD.n84  |мя 17.9
R486 VDD.n126 р{мя 17.9
R487 VDD.n193  17.9
R488 VDD.n250 VDD.t138 17.9
R489 VDD.n307  |мя 17.9
R490 VDD.n364 р{мя 17.9
R491 VDD.n421  |мя 17.9
R492 VDD.n478  |мя 17.9
R493 VDD.n610  |мя 17.9
R494 VDD.n1293 р{мя 17.9
R495 VDD.n1236  |мя 17.9
R496 VDD.n1179  17.9
R497 VDD.n1122 р{мя 17.9
R498 VDD.n990  |мя 17.9
R499 VDD.n933 °aI*V 17.9
R500 VDD.n876  |мя 17.9
R501 VDD.n819  17.9
R502 VDD.n762  |мя 17.9
R503 VDD.n529  Xl*V 15.343
R504 VDD.n1069  |мя 15.343
R505 VDD.n708 р{мя 15.343
R506 VDD.n671 VDD.n669 14.864
R507 VDD.n669 VDD.n667 14.864
R508 VDD.n667 VDD.n665 14.864
R509 VDD.n665 VDD.n663 14.864
R510 VDD.n663 VDD.n661 14.864
R511 VDD.n802 VDD.n800 14.864
R512 VDD.n800 VDD.n798 14.864
R513 VDD.n798 VDD.n796 14.864
R514 VDD.n796 VDD.n794 14.864
R515 VDD.n794 VDD.n792 14.864
R516 VDD.n859 VDD.n857 14.864
R517 VDD.n857 VDD.n855 14.864
R518 VDD.n855 VDD.n853 14.864
R519 VDD.n853 VDD.n851 14.864
R520 VDD.n851 VDD.n849 14.864
R521 VDD.n916 VDD.n914 14.864
R522 VDD.n914 VDD.n912 14.864
R523 VDD.n912 VDD.n910 14.864
R524 VDD.n910 VDD.n908 14.864
R525 VDD.n908 VDD.n906 14.864
R526 VDD.n973 VDD.n971 14.864
R527 VDD.n971 VDD.n969 14.864
R528 VDD.n969 VDD.n967 14.864
R529 VDD.n967 VDD.n965 14.864
R530 VDD.n965 VDD.n963 14.864
R531 VDD.n1030 VDD.n1028 14.864
R532 VDD.n1028 VDD.n1026 14.864
R533 VDD.n1026 VDD.n1024 14.864
R534 VDD.n1024 VDD.n1022 14.864
R535 VDD.n1022 VDD.n1020 14.864
R536 VDD.n1105 VDD.n1103 14.864
R537 VDD.n1103 VDD.n1101 14.864
R538 VDD.n1101 VDD.n1099 14.864
R539 VDD.n1099 VDD.n1097 14.864
R540 VDD.n1097 VDD.n1095 14.864
R541 VDD.n1162 VDD.n1160 14.864
R542 VDD.n1160 VDD.n1158 14.864
R543 VDD.n1158 VDD.n1156 14.864
R544 VDD.n1156 VDD.n1154 14.864
R545 VDD.n1154 VDD.n1152 14.864
R546 VDD.n1219 VDD.n1217 14.864
R547 VDD.n1217 VDD.n1215 14.864
R548 VDD.n1215 VDD.n1213 14.864
R549 VDD.n1213 VDD.n1211 14.864
R550 VDD.n1211 VDD.n1209 14.864
R551 VDD.n1276 VDD.n1274 14.864
R552 VDD.n1274 VDD.n1272 14.864
R553 VDD.n1272 VDD.n1270 14.864
R554 VDD.n1270 VDD.n1268 14.864
R555 VDD.n1268 VDD.n1266 14.864
R556 VDD.n637 VDD.n635 14.864
R557 VDD.n635 VDD.n633 14.864
R558 VDD.n633 VDD.n631 14.864
R559 VDD.n631 VDD.n629 14.864
R560 VDD.n629 VDD.n627 14.864
R561 VDD.n580 VDD.n578 14.864
R562 VDD.n578 VDD.n576 14.864
R563 VDD.n576 VDD.n574 14.864
R564 VDD.n574 VDD.n572 14.864
R565 VDD.n572 VDD.n570 14.864
R566 VDD.n505 VDD.n503 14.864
R567 VDD.n503 VDD.n501 14.864
R568 VDD.n501 VDD.n499 14.864
R569 VDD.n499 VDD.n497 14.864
R570 VDD.n497 VDD.n495 14.864
R571 VDD.n448 VDD.n446 14.864
R572 VDD.n446 VDD.n444 14.864
R573 VDD.n444 VDD.n442 14.864
R574 VDD.n442 VDD.n440 14.864
R575 VDD.n440 VDD.n438 14.864
R576 VDD.n391 VDD.n389 14.864
R577 VDD.n389 VDD.n387 14.864
R578 VDD.n387 VDD.n385 14.864
R579 VDD.n385 VDD.n383 14.864
R580 VDD.n383 VDD.n381 14.864
R581 VDD.n334 VDD.n332 14.864
R582 VDD.n332 VDD.n330 14.864
R583 VDD.n330 VDD.n328 14.864
R584 VDD.n328 VDD.n326 14.864