* SPICE3 file created from TMRDFFRNQX1.ext - technology: sky130A

.subckt TMRDFFRNQX1 Q D CLK RN VDD GND
X0 VDD.t171 RN.t0 a_10507_187.t4 VDD.t170 sky130_fd_pr__pfet_01v8 ad=0p pd=0u as=0p ps=0u w=2u l=0.15u
X1 GND a_10507_187.t7 a_10451_103.t0 GND sky130_fd_pr__nfet_01v8 ad=4.9019p pd=4.107u as=0p ps=0u w=0u l=0u
X2 a_14189_1050.t2 a_10637_1050.t7 VDD.t127 0ú3€ sky130_fd_pr__pfet_01v8 ad=0p pd=0u as=0p ps=0u w=2u l=0.15u
X3 a_10959_989.t1 a_10637_1050.t8 VDD.t95  sky130_fd_pr__pfet_01v8 ad=0p pd=0u as=0p ps=0u w=2u l=0.15u
X4 a_599_989.t2 D.t0 VDD.t1 0ú3€ sky130_fd_pr__pfet_01v8 ad=0p pd=0u as=0p ps=0u w=2u l=0.15u
X5 a_16421_1051.t5 a_14511_989.t5 a_15932_209.t4  sky130_fd_pr__pfet_01v8 ad=0p pd=0u as=0p ps=0u w=2u l=0.15u
X6 a_5327_187.t3 CLK.t0 VDD.t52 0ú3€ sky130_fd_pr__pfet_01v8 ad=0p pd=0u as=0p ps=0u w=2u l=0.15u
X7 VDD.t5 a_599_989.t7 a_2141_1050.t4  sky130_fd_pr__pfet_01v8 ad=0p pd=0u as=0p ps=0u w=2u l=0.15u
X8 a_9331_989.t4 a_9009_1050.t7 VDD.t60 0ú3€ sky130_fd_pr__pfet_01v8 ad=0p pd=0u as=0p ps=0u w=2u l=0.15u
X9 VDD.t131 CLK.t1 a_277_1050.t6  sky130_fd_pr__pfet_01v8 ad=0p pd=0u as=0p ps=0u w=2u l=0.15u
X10 VDD.t44 a_5457_1050.t7 a_5779_989.t6 0ú3€ sky130_fd_pr__pfet_01v8 ad=0p pd=0u as=0p ps=0u w=2u l=0.15u
X11 VDD.t42 a_5457_1050.t8 a_9009_1050.t0  sky130_fd_pr__pfet_01v8 ad=0p pd=0u as=0p ps=0u w=2u l=0.15u
X12 VDD.t109 a_277_1050.t7 a_3829_1050.t3 0ú3€ sky130_fd_pr__pfet_01v8 ad=0p pd=0u as=0p ps=0u w=2u l=0.15u
X13 VDD.t169 RN.t2 a_5779_989.t3  sky130_fd_pr__pfet_01v8 ad=0p pd=0u as=0p ps=0u w=2u l=0.15u
X14 VDD.t191 a_9331_989.t5 a_9009_1050.t5 0ú3€ sky130_fd_pr__pfet_01v8 ad=0p pd=0u as=0p ps=0u w=2u l=0.15u
X15 VDD.t101 CLK.t2 a_10637_1050.t3  sky130_fd_pr__pfet_01v8 ad=0p pd=0u as=0p ps=0u w=2u l=0.15u
X16 VDD.t79 CLK.t3 a_10507_187.t2 0ú3€ sky130_fd_pr__pfet_01v8 ad=0p pd=0u as=0p ps=0u w=2u l=0.15u
X17 a_9331_989.t2 a_5327_187.t7 VDD.t29  sky130_fd_pr__pfet_01v8 ad=0p pd=0u as=0p ps=0u w=2u l=0.15u
X18 a_14189_1050.t4 RN.t3 VDD.t167 0ú3€ sky130_fd_pr__pfet_01v8 ad=0p pd=0u as=0p ps=0u w=2u l=0.15u
X19 a_10959_989.t5 D.t2 VDD.t173  sky130_fd_pr__pfet_01v8 ad=0p pd=0u as=0p ps=0u w=2u l=0.15u
X20 GND a_9331_989.t7 a_16318_101.t0 GND sky130_fd_pr__nfet_01v8 ad=0p pd=0u as=0p ps=0u w=0u l=0u
X21 a_599_989.t5 RN.t4 VDD.t165 0ú3€ sky130_fd_pr__pfet_01v8 ad=0p pd=0u as=0p ps=0u w=2u l=0.15u
X22 a_3829_1050.t6 a_4151_989.t5 VDD.t3  sky130_fd_pr__pfet_01v8 ad=0p pd=0u as=0p ps=0u w=2u l=0.15u
X23 VDD.t177 a_14511_989.t6 a_15757_1051.t3 0ú3€ sky130_fd_pr__pfet_01v8 ad=0p pd=0u as=0p ps=0u w=2u l=0.15u
X24 a_10637_1050.t5 a_10507_187.t8 VDD.t123  sky130_fd_pr__pfet_01v8 ad=0p pd=0u as=0p ps=0u w=2u l=0.15u
X25 a_147_187.t6 CLK.t4 VDD.t193 0ú3€ sky130_fd_pr__pfet_01v8 ad=0p pd=0u as=0p ps=0u w=2u l=0.15u
X26 a_4151_989.t1 a_3829_1050.t7 VDD.t25  sky130_fd_pr__pfet_01v8 ad=0p pd=0u as=0p ps=0u w=2u l=0.15u
X27 GND a_5457_1050.t10 a_8823_103.t0 GND sky130_fd_pr__nfet_01v8 ad=0p pd=0u as=0p ps=0u w=0u l=0u
X28 a_9009_1050.t1 a_5457_1050.t9 VDD.t54 0ú3€ sky130_fd_pr__pfet_01v8 ad=0p pd=0u as=0p ps=0u w=2u l=0.15u
X29 a_15757_1051.t5 a_9331_989.t6 VDD.t27  sky130_fd_pr__pfet_01v8 ad=0p pd=0u as=0p ps=0u w=2u l=0.15u
X30 VDD.t72 a_14189_1050.t7 a_14511_989.t1 0ú3€ sky130_fd_pr__pfet_01v8 ad=0p pd=0u as=0p ps=0u w=2u l=0.15u
X31 VDD.t15 a_10959_989.t8 a_12501_1050.t4  sky130_fd_pr__pfet_01v8 ad=0p pd=0u as=0p ps=0u w=2u l=0.15u
X32 GND a_5457_1050.t11 a_6233_103.t0 GND sky130_fd_pr__nfet_01v8 ad=0p pd=0u as=0p ps=0u w=0u l=0u
X33 VDD.t81 a_147_187.t9 a_2141_1050.t1 0ú3€ sky130_fd_pr__pfet_01v8 ad=0p pd=0u as=0p ps=0u w=2u l=0.15u
X34 VDD.t66 a_599_989.t8 a_277_1050.t2  sky130_fd_pr__pfet_01v8 ad=0p pd=0u as=0p ps=0u w=2u l=0.15u
X35 VDD.t87 D.t4 a_5779_989.t1 0ú3€ sky130_fd_pr__pfet_01v8 ad=0p pd=0u as=0p ps=0u w=2u l=0.15u
X36 VDD.t163 RN.t6 a_9009_1050.t3  sky130_fd_pr__pfet_01v8 ad=0p pd=0u as=0p ps=0u w=2u l=0.15u
X37 VDD.t211 a_2141_1050.t5 a_147_187.t4 0ú3€ sky130_fd_pr__pfet_01v8 ad=0p pd=0u as=0p ps=0u w=2u l=0.15u
X38 VDD.t19 a_5327_187.t8 a_5457_1050.t4  sky130_fd_pr__pfet_01v8 ad=0p pd=0u as=0p ps=0u w=2u l=0.15u
X39 VDD.t31 a_7321_1050.t5 a_5327_187.t0 0ú3€ sky130_fd_pr__pfet_01v8 ad=0p pd=0u as=0p ps=0u w=2u l=0.15u
X40 GND a_9009_1050.t9 a_9806_101.t0 GND sky130_fd_pr__nfet_01v8 ad=0p pd=0u as=0p ps=0u w=0u l=0u
X41 a_14189_1050.t5 a_14511_989.t8 VDD.t175  sky130_fd_pr__pfet_01v8 ad=0p pd=0u as=0p ps=0u w=2u l=0.15u
X42 a_10959_989.t4 RN.t8 VDD.t161 0ú3€ sky130_fd_pr__pfet_01v8 ad=0p pd=0u as=0p ps=0u w=2u l=0.15u
X43 a_147_187.t2 RN.t9 VDD.t159  sky130_fd_pr__pfet_01v8 ad=0p pd=0u as=0p ps=0u w=2u l=0.15u
X44 GND a_5779_989.t8 a_7216_101.t0 GND sky130_fd_pr__nfet_01v8 ad=0p pd=0u as=0p ps=0u w=0u l=0u
X45 GND a_147_187.t12 a_91_103.t0 GND sky130_fd_pr__nfet_01v8 ad=0p pd=0u as=0p ps=0u w=0u l=0u
X46 GND a_7321_1050.t6 a_7861_103.t0 GND sky130_fd_pr__nfet_01v8 ad=0p pd=0u as=0p ps=0u w=0u l=0u
X47 a_4151_989.t3 a_147_187.t10 VDD.t203 0ú3€ sky130_fd_pr__pfet_01v8 ad=0p pd=0u as=0p ps=0u w=2u l=0.15u
X48 a_7321_1050.t3 a_5327_187.t9 VDD.t97  sky130_fd_pr__pfet_01v8 ad=0p pd=0u as=0p ps=0u w=2u l=0.15u
X49 a_15932_209.t2 a_4151_989.t6 a_16421_1051.t3 0ú3€ sky130_fd_pr__pfet_01v8 ad=0p pd=0u as=0p ps=0u w=2u l=0.15u
X50 Q a_15932_209.t8 GND.t4 GND sky130_fd_pr__nfet_01v8 ad=1.791p pd=1.57u as=0p ps=0u w=0u l=0u
X51 VDD.t58 a_10959_989.t9 a_10637_1050.t0  sky130_fd_pr__pfet_01v8 ad=0p pd=0u as=0p ps=0u w=2u l=0.15u
X52 GND a_5327_187.t10 a_5271_103.t0 GND sky130_fd_pr__nfet_01v8 ad=0p pd=0u as=0p ps=0u w=0u l=0u
X53 a_15757_1051.t2 a_14511_989.t9 VDD.t17 0ú3€ sky130_fd_pr__pfet_01v8 ad=0p pd=0u as=0p ps=0u w=2u l=0.15u
X54 VDD.t121 a_10507_187.t10 a_14511_989.t4  sky130_fd_pr__pfet_01v8 ad=0p pd=0u as=0p ps=0u w=2u l=0.15u
X55 VDD.t119 a_10507_187.t11 a_12501_1050.t1 0ú3€ sky130_fd_pr__pfet_01v8 ad=0p pd=0u as=0p ps=0u w=2u l=0.15u
X56 VDD.t83 a_15932_209.t7 Q.t1  sky130_fd_pr__pfet_01v8 ad=0p pd=0u as=0p ps=0u w=2u l=0.15u
X57 a_277_1050.t4 a_147_187.t11 VDD.t68 0ú3€ sky130_fd_pr__pfet_01v8 ad=0p pd=0u as=0p ps=0u w=2u l=0.15u
X58 a_16421_1051.t7 a_4151_989.t7 a_15757_1051.t1  sky130_fd_pr__pfet_01v8 ad=0p pd=0u as=0p ps=0u w=2u l=0.15u
X59 VDD.t195 a_9009_1050.t8 a_9331_989.t3 0ú3€ sky130_fd_pr__pfet_01v8 ad=0p pd=0u as=0p ps=0u w=2u l=0.15u
X60 a_10507_187.t0 a_12501_1050.t5 VDD.t56  sky130_fd_pr__pfet_01v8 ad=0p pd=0u as=0p ps=0u w=2u l=0.15u
X61 a_10637_1050.t6 a_10959_989.t10 VDD.t199 0ú3€ sky130_fd_pr__pfet_01v8 ad=0p pd=0u as=0p ps=0u w=2u l=0.15u
X62 a_10507_187.t5 RN.t11 VDD.t157  sky130_fd_pr__pfet_01v8 ad=0p pd=0u as=0p ps=0u w=2u l=0.15u
X63 a_7321_1050.t1 a_5779_989.t9 VDD.t189 0ú3€ sky130_fd_pr__pfet_01v8 ad=0p pd=0u as=0p ps=0u w=2u l=0.15u
X64 VDD.t205 a_277_1050.t8 a_599_989.t6  sky130_fd_pr__pfet_01v8 ad=0p pd=0u as=0p ps=0u w=2u l=0.15u
X65 a_15932_209.t3 a_14511_989.t11 a_16421_1051.t4 0ú3€ sky130_fd_pr__pfet_01v8 ad=0p pd=0u as=0p ps=0u w=2u l=0.15u
X66 VDD.t155 RN.t12 a_599_989.t4  sky130_fd_pr__pfet_01v8 ad=0p pd=0u as=0p ps=0u w=2u l=0.15u
X67 VDD.t38 a_4151_989.t8 a_3829_1050.t5 0ú3€ sky130_fd_pr__pfet_01v8 ad=0p pd=0u as=0p ps=0u w=2u l=0.15u
X68 GND a_12501_1050.t6 a_13041_103.t0 GND sky130_fd_pr__nfet_01v8 ad=0p pd=0u as=0p ps=0u w=0u l=0u
X69 GND a_277_1050.t11 a_3643_103.t0 GND sky130_fd_pr__nfet_01v8 ad=0p pd=0u as=0p ps=0u w=0u l=0u
X70 VDD.t33 a_5779_989.t10 a_5457_1050.t0  sky130_fd_pr__pfet_01v8 ad=0p pd=0u as=0p ps=0u w=2u l=0.15u
X71 VDD.t153 RN.t14 a_5327_187.t5 0ú3€ sky130_fd_pr__pfet_01v8 ad=0p pd=0u as=0p ps=0u w=2u l=0.15u
X72 a_16421_1051.t0 a_9331_989.t8 a_15757_1051.t7  sky130_fd_pr__pfet_01v8 ad=0p pd=0u as=0p ps=0u w=2u l=0.15u
X73 a_2141_1050.t3 a_599_989.t10 VDD.t85 0ú3€ sky130_fd_pr__pfet_01v8 ad=0p pd=0u as=0p ps=0u w=2u l=0.15u
X74 a_277_1050.t5 CLK.t7 VDD.t70  sky130_fd_pr__pfet_01v8 ad=0p pd=0u as=0p ps=0u w=2u l=0.15u
X75 a_3829_1050.t2 a_277_1050.t9 VDD.t9 0ú3€ sky130_fd_pr__pfet_01v8 ad=0p pd=0u as=0p ps=0u w=2u l=0.15u
X76 a_5779_989.t5 a_5457_1050.t12 VDD.t13  sky130_fd_pr__pfet_01v8 ad=0p pd=0u as=0p ps=0u w=2u l=0.15u
X77 a_10637_1050.t2 CLK.t8 VDD.t74 0ú3€ sky130_fd_pr__pfet_01v8 ad=0p pd=0u as=0p ps=0u w=2u l=0.15u
X78 a_10507_187.t6 CLK.t9 VDD.t183  sky130_fd_pr__pfet_01v8 ad=0p pd=0u as=0p ps=0u w=2u l=0.15u
X79 VDD.t50 a_10637_1050.t10 a_14189_1050.t1 0ú3€ sky130_fd_pr__pfet_01v8 ad=0p pd=0u as=0p ps=0u w=2u l=0.15u
X80 VDD.t129 a_10637_1050.t11 a_10959_989.t0  sky130_fd_pr__pfet_01v8 ad=0p pd=0u as=0p ps=0u w=2u l=0.15u
X81 GND a_3829_1050.t8 a_4626_101.t0 GND sky130_fd_pr__nfet_01v8 ad=0p pd=0u as=0p ps=0u w=0u l=0u
X82 VDD.t151 RN.t15 a_3829_1050.t1 0ú3€ sky130_fd_pr__pfet_01v8 ad=0p pd=0u as=0p ps=0u w=2u l=0.15u
X83 VDD.t179 D.t6 a_599_989.t1  sky130_fd_pr__pfet_01v8 ad=0p pd=0u as=0p ps=0u w=2u l=0.15u
X84 GND a_599_989.t12 a_2036_101.t0 GND sky130_fd_pr__nfet_01v8 ad=0p pd=0u as=0p ps=0u w=0u l=0u
X85 GND a_10637_1050.t12 a_14003_103.t0 GND sky130_fd_pr__nfet_01v8 ad=0p pd=0u as=0p ps=0u w=0u l=0u
X86 GND a_2141_1050.t7 a_2681_103.t0 GND sky130_fd_pr__nfet_01v8 ad=0p pd=0u as=0p ps=0u w=0u l=0u
X87 a_599_989.t0 a_277_1050.t10 VDD.t11 0ú3€ sky130_fd_pr__pfet_01v8 ad=0p pd=0u as=0p ps=0u w=2u l=0.15u
X88 VDD.t21 CLK.t11 a_5457_1050.t6  sky130_fd_pr__pfet_01v8 ad=0p pd=0u as=0p ps=0u w=2u l=0.15u
X89 VDD.t40 CLK.t12 a_5327_187.t1 0ú3€ sky130_fd_pr__pfet_01v8 ad=0p pd=0u as=0p ps=0u w=2u l=0.15u
X90 a_2141_1050.t0 a_147_187.t13 VDD.t76  sky130_fd_pr__pfet_01v8 ad=0p pd=0u as=0p ps=0u w=2u l=0.15u
X91 a_277_1050.t1 a_599_989.t11 VDD.t93 0ú3€ sky130_fd_pr__pfet_01v8 ad=0p pd=0u as=0p ps=0u w=2u l=0.15u
X92 a_3829_1050.t0 RN.t16 VDD.t149  sky130_fd_pr__pfet_01v8 ad=0p pd=0u as=0p ps=0u w=2u l=0.15u
X93 a_5779_989.t0 D.t7 VDD.t7 0ú3€ sky130_fd_pr__pfet_01v8 ad=0p pd=0u as=0p ps=0u w=2u l=0.15u
X94 a_9009_1050.t2 RN.t17 VDD.t147  sky130_fd_pr__pfet_01v8 ad=0p pd=0u as=0p ps=0u w=2u l=0.15u
X95 a_5327_187.t2 a_7321_1050.t7 VDD.t48 0ú3€ sky130_fd_pr__pfet_01v8 ad=0p pd=0u as=0p ps=0u w=2u l=0.15u
X96 VDD.t207 a_5327_187.t12 a_9331_989.t1  sky130_fd_pr__pfet_01v8 ad=0p pd=0u as=0p ps=0u w=2u l=0.15u
X97 GND a_9331_989.t11 a_15652_101.t0 GND sky130_fd_pr__nfet_01v8 ad=0p pd=0u as=0p ps=0u w=0u l=0u
X98 GND a_14189_1050.t8 a_14986_101.t0 GND sky130_fd_pr__nfet_01v8 ad=0p pd=0u as=0p ps=0u w=0u l=0u
X99 a_147_187.t3 a_2141_1050.t6 VDD.t125 0ú3€ sky130_fd_pr__pfet_01v8 ad=0p pd=0u as=0p ps=0u w=2u l=0.15u
X100 a_5457_1050.t3 a_5327_187.t13 VDD.t89  sky130_fd_pr__pfet_01v8 ad=0p pd=0u as=0p ps=0u w=2u l=0.15u
X101 VDD.t145 RN.t18 a_14189_1050.t3 0ú3€ sky130_fd_pr__pfet_01v8 ad=0p pd=0u as=0p ps=0u w=2u l=0.15u
X102 VDD.t181 D.t8 a_10959_989.t6  sky130_fd_pr__pfet_01v8 ad=0p pd=0u as=0p ps=0u w=2u l=0.15u
X103 VDD.t91 CLK.t14 a_147_187.t5 0ú3€ sky130_fd_pr__pfet_01v8 ad=0p pd=0u as=0p ps=0u w=2u l=0.15u
X104 VDD.t135 a_5779_989.t11 a_7321_1050.t0  sky130_fd_pr__pfet_01v8 ad=0p pd=0u as=0p ps=0u w=2u l=0.15u
X105 VDD.t23 a_3829_1050.t9 a_4151_989.t0 VDD.t22 sky130_fd_pr__pfet_01v8 ad=0p pd=0u as=0p ps=0u w=2u l=0.15u
X106 VDD.t62 a_9331_989.t9 a_15757_1051.t4 VDD.t61 sky130_fd_pr__pfet_01v8 ad=0p pd=0u as=0p ps=0u w=2u l=0.15u
X107 GND a_277_1050.t12 a_1053_103.t0 GND sky130_fd_pr__nfet_01v8 ad=0p pd=0u as=0p ps=0u w=0u l=0u
X108 a_14511_989.t3 a_10507_187.t13 VDD.t117 õ3€ sky130_fd_pr__pfet_01v8 ad=0p pd=0u as=0p ps=0u w=2u l=0.15u
X109 a_12501_1050.t0 a_10507_187.t14 VDD.t115 õ3€ sky130_fd_pr__pfet_01v8 ad=0p pd=0u as=0p ps=0u w=2u l=0.15u
X110 a_9009_1050.t6 a_9331_989.t10 VDD.t197 õ3€ sky130_fd_pr__pfet_01v8 ad=0p pd=0u as=0p ps=0u w=2u l=0.15u
X111 a_5779_989.t2 RN.t21 VDD.t143 õ3€ sky130_fd_pr__pfet_01v8 ad=0p pd=0u as=0p ps=0u w=2u l=0.15u
X112 Q.t0 a_15932_209.t9 VDD.t111 õ3€ sky130_fd_pr__pfet_01v8 ad=0p pd=0u as=0p ps=0u w=2u l=0.15u
X113 a_5457_1050.t5 CLK.t16 VDD.t99 õ3€ sky130_fd_pr__pfet_01v8 ad=0p pd=0u as=0p ps=0u w=2u l=0.15u
X114 a_15757_1051.t6 a_9331_989.t12 a_16421_1051.t6 õ3€ sky130_fd_pr__pfet_01v8 ad=0p pd=0u as=0p ps=0u w=2u l=0.15u
X115 VDD.t201 a_14511_989.t13 a_14189_1050.t6 õ3€ sky130_fd_pr__pfet_01v8 ad=0p pd=0u as=0p ps=0u w=2u l=0.15u
X116 GND a_4151_989.t13 a_16984_101.t0 GND sky130_fd_pr__nfet_01v8 ad=0p pd=0u as=0p ps=0u w=0u l=0u
X117 VDD.t141 RN.t23 a_147_187.t1 õ3€ sky130_fd_pr__pfet_01v8 ad=0p pd=0u as=0p ps=0u w=2u l=0.15u
X118 VDD.t187 a_147_187.t14 a_4151_989.t2 VDD.t186 sky130_fd_pr__pfet_01v8 ad=0p pd=0u as=0p ps=0u w=2u l=0.15u
X119 VDD.t105 a_5327_187.t15 a_7321_1050.t2 õ3€ sky130_fd_pr__pfet_01v8 ad=0p pd=0u as=0p ps=0u w=2u l=0.15u
X120 a_16421_1051.t2 a_4151_989.t11 a_15932_209.t1 VDD.t106 sky130_fd_pr__pfet_01v8 ad=0p pd=0u as=0p ps=0u w=2u l=0.15u
X121 GND a_10637_1050.t9 a_11413_103.t0 GND sky130_fd_pr__nfet_01v8 ad=0p pd=0u as=0p ps=0u w=0u l=0u
X122 a_14511_989.t0 a_14189_1050.t9 VDD.t35 õ3€ sky130_fd_pr__pfet_01v8 ad=0p pd=0u as=0p ps=0u w=2u l=0.15u
X123 a_12501_1050.t3 a_10959_989.t12 VDD.t185  sky130_fd_pr__pfet_01v8 ad=0p pd=0u as=0p ps=0u w=2u l=0.15u
X124 VDD.t139 RN.t25 a_10959_989.t3 VDD.t138 sky130_fd_pr__pfet_01v8 ad=0p pd=0u as=0p ps=0u w=2u l=0.15u
X125 a_5457_1050.t2 a_5779_989.t12 VDD.t133 õ3€ sky130_fd_pr__pfet_01v8 ad=0p pd=0u as=0p ps=0u w=2u l=0.15u
X126 a_5327_187.t4 RN.t26 VDD.t137  sky130_fd_pr__pfet_01v8 ad=0p pd=0u as=0p ps=0u w=2u l=0.15u
X127 VDD.t103 a_147_187.t15 a_277_1050.t3 VDD.t102 sky130_fd_pr__pfet_01v8 ad=0p pd=0u as=0p ps=0u w=2u l=0.15u
X128 a_15757_1051.t0 a_4151_989.t12 a_16421_1051.t1 õ3€ sky130_fd_pr__pfet_01v8 ad=0p pd=0u as=0p ps=0u w=2u l=0.15u
X129 GND a_10959_989.t7 a_12396_101.t0 GND sky130_fd_pr__nfet_01v8 ad=0p pd=0u as=0p ps=0u w=0u l=0u
X130 VDD.t113 a_10507_187.t15 a_10637_1050.t4  sky130_fd_pr__pfet_01v8 ad=0p pd=0u as=0p ps=0u w=2u l=0.15u
X131 VDD.t64 a_12501_1050.t7 a_10507_187.t1 VDD.t63 sky130_fd_pr__pfet_01v8 ad=0p pd=0u as=0p ps=0u w=2u l=0.15u
C0 CLK D 0.45fF
C1 CLK RN 1.13fF
C2 CLK VDD 8.54fF
C3 D RN 12.60fF
C4 D VDD 0.88fF
C5 RN VDD 2.66fF
C6 Q VDD 1.05fF
R0 RN.n17 RN.t15 479.223
R1 RN.n8 RN.t6 479.223
R2 RN.n0 RN.t18 479.223
R3 RN.n23 RN.t4 454.685
R4 RN.n20 RN.t9 454.685
R5 RN.n14 RN.t21 454.685
R6 RN.n11 RN.t26 454.685
R7 RN.n5 RN.t8 454.685
R8 RN.n2 RN.t11 454.685
R9 RN.n23 RN.t12 428.979
R10 RN.n20 RN.t23 428.979
R11 RN.n14 RN.t2 428.979
R12 RN.n11 RN.t14 428.979
R13 RN.n5 RN.t25 428.979
R14 RN.n2 RN.t0 428.979
R15 RN.n17 RN.t16 375.52
R16 RN.n8 RN.t17 375.52
R17 RN.n0 RN.t3 375.52
R18 RN.n24 RN.n23 254.865
R19 RN.n21 RN.n20 254.865
R20 RN.n15 RN.n14 254.865
R21 RN.n12 RN.n11 254.865
R22 RN.n6 RN.n5 254.865
R23 RN.n3 RN.n2 254.865
R24 RN.n18 RN.n17 252.188
R25 RN.n9 RN.n8 252.188
R26 RN.n1 RN.n0 252.188
R27 RN.n18 RN.t20 231.854
R28 RN.n9 RN.t7 231.854
R29 RN.n1 RN.t24 231.854
R30 RN.n24 RN.t19 228.106
R31 RN.n21 RN.t10 228.106
R32 RN.n15 RN.t5 228.106
R33 RN.n12 RN.t1 228.106
R34 RN.n6 RN.t22 228.106
R35 RN.n3 RN.t13 228.106
R36 RN.n10 RN.n7 10.293
R37 RN.n19 RN.n16 10.293
R38 RN.n4 RN.n1 7.325
R39 RN.n7 RN.n4 5.94
R40 RN.n16 RN.n13 5.94
R41 RN.n25 RN.n22 5.94
R42 RN.n4 RN.n3 4.65
R43 RN.n7 RN.n6 4.65
R44 RN.n10 RN.n9 4.65
R45 RN.n13 RN.n12 4.65
R46 RN.n16 RN.n15 4.65
R47 RN.n19 RN.n18 4.65
R48 RN.n22 RN.n21 4.65
R49 RN.n25 RN.n24 4.65
R50 RN.n13 RN.n10 2.675
R51 RN.n22 RN.n19 2.675
R52 RN.n25 RN 0.046
R53 a_10507_187.n10 a_10507_187.t15 512.525
R54 a_10507_187.n8 a_10507_187.t11 472.359
R55 a_10507_187.n6 a_10507_187.t10 472.359
R56 a_10507_187.n11 a_10507_187.t7 417.109
R57 a_10507_187.n8 a_10507_187.t14 384.527
R58 a_10507_187.n6 a_10507_187.t13 384.527
R59 a_10507_187.n10 a_10507_187.t8 371.139
R60 a_10507_187.n9 a_10507_187.t12 370.613
R61 a_10507_187.n7 a_10507_187.t9 370.613
R62 a_10507_187.n16 a_10507_187.n14 363.934
R63 a_10507_187.n11 a_10507_187.n10 179.837
R64 a_10507_187.n4 a_10507_187.n3 161.352
R65 a_10507_187.n9 a_10507_187.n8 127.096
R66 a_10507_187.n7 a_10507_187.n6 127.096
R67 a_10507_187.n14 a_10507_187.n5 123.481
R68 a_10507_187.n5 a_10507_187.n1 95.095
R69 a_10507_187.n4 a_10507_187.n2 95.095
R70 a_10507_187.n5 a_10507_187.n4 66.258
R71 a_10507_187.n16 a_10507_187.n15 30
R72 a_10507_187.n17 a_10507_187.n0 24.383
R73 a_10507_187.n17 a_10507_187.n16 23.684
R74 a_10507_187.n1 a_10507_187.t4 14.282
R75 a_10507_187.n1 a_10507_187.t5 14.282
R76 a_10507_187.n2 a_10507_187.t2 14.282
R77 a_10507_187.n2 a_10507_187.t6 14.282
R78 a_10507_187.n3 a_10507_187.t1 14.282
R79 a_10507_187.n3 a_10507_187.t0 14.282
R80 a_10507_187.n12 a_10507_187.n11 12.222
R81 a_10507_187.n13 a_10507_187.n7 10.046
R82 a_10507_187.n12 a_10507_187.n9 4.65
R83 a_10507_187.n14 a_10507_187.n13 4.65
R84 a_10507_187.n13 a_10507_187.n12 4.035
R85 VDD.n835 VDD.n824 144.705
R86 VDD.n910 VDD.n903 144.705
R87 VDD.n967 VDD.n960 144.705
R88 VDD.n1042 VDD.n1035 144.705
R89 VDD.n1117 VDD.n1110 144.705
R90 VDD.n1174 VDD.n1167 144.705
R91 VDD.n1249 VDD.n1242 144.705
R92 VDD.n1324 VDD.n1317 144.705
R93 VDD.n1381 VDD.n1374 144.705
R94 VDD.n700 VDD.n693 144.705
R95 VDD.n1456 VDD.n1449 144.705
R96 VDD.n643 VDD.n636 144.705
R97 VDD.n568 VDD.n561 144.705
R98 VDD.n493 VDD.n486 144.705
R99 VDD.n436 VDD.n429 144.705
R100 VDD.n361 VDD.n354 144.705
R101 VDD.n286 VDD.n279 144.705
R102 VDD.n229 VDD.n222 144.705
R103 VDD.n172 VDD.n165 144.705
R104 VDD.n119 VDD.n112 144.705
R105 VDD.n66 VDD.n55 144.705
R106 VDD.n801 VDD.t66 143.754
R107 VDD.n877 VDD.t155 143.754
R108 VDD.n1009 VDD.t141 143.754
R109 VDD.n1084 VDD.t38 143.754
R110 VDD.n1216 VDD.t33 143.754
R111 VDD.n1291 VDD.t169 143.754
R112 VDD.n1423 VDD.t153 143.754
R113 VDD.n709 VDD.t191 143.754
R114 VDD.n577 VDD.t58 143.754
R115 VDD.n502 VDD.t139 143.754
R116 VDD.n370 VDD.t171 143.754
R117 VDD.n295 VDD.t201 143.754
R118 VDD.n935 VDD.t81 143.754
R119 VDD.n1142 VDD.t187 143.754
R120 VDD.n1349 VDD.t105 143.754
R121 VDD.n646 VDD.t207 143.754
R122 VDD.n439 VDD.t119 143.754
R123 VDD.n232 VDD.t121 143.754
R124 VDD.n197 VDD.t27 135.539
R125 VDD.n175 VDD.t177 135.539
R126 VDD.n766 VDD.t68 135.17
R127 VDD.n842 VDD.t11 135.17
R128 VDD.n913 VDD.t85 135.17
R129 VDD.n974 VDD.t125 135.17
R130 VDD.n1049 VDD.t9 135.17
R131 VDD.n1120 VDD.t25 135.17
R132 VDD.n1181 VDD.t89 135.17
R133 VDD.n1256 VDD.t13 135.17
R134 VDD.n1327 VDD.t189 135.17
R135 VDD.n1388 VDD.t48 135.17
R136 VDD.n1463 VDD.t54 135.17
R137 VDD.n668 VDD.t60 135.17
R138 VDD.n607 VDD.t123 135.17
R139 VDD.n532 VDD.t95 135.17
R140 VDD.n461 VDD.t185 135.17
R141 VDD.n400 VDD.t56 135.17
R142 VDD.n325 VDD.t127 135.17
R143 VDD.n254 VDD.t35 135.17
R144 VDD.n35 VDD.t111 135.17
R145 VDD.n24 VDD.t83 135.17
R146 VDD.n185 VDD.n184 129.849
R147 VDD.n776 VDD.n775 129.472
R148 VDD.n792 VDD.n791 129.472
R149 VDD.n852 VDD.n851 129.472
R150 VDD.n868 VDD.n867 129.472
R151 VDD.n927 VDD.n926 129.472
R152 VDD.n984 VDD.n983 129.472
R153 VDD.n1000 VDD.n999 129.472
R154 VDD.n1059 VDD.n1058 129.472
R155 VDD.n1075 VDD.n1074 129.472
R156 VDD.n1134 VDD.n1133 129.472
R157 VDD.n1191 VDD.n1190 129.472
R158 VDD.n1207 VDD.n1206 129.472
R159 VDD.n1266 VDD.n1265 129.472
R160 VDD.n1282 VDD.n1281 129.472
R161 VDD.n1341 VDD.n1340 129.472
R162 VDD.n1398 VDD.n1397 129.472
R163 VDD.n1414 VDD.n1413 129.472
R164 VDD.n730 VDD.n729 129.472
R165 VDD.n718 VDD.n717 129.472
R166 VDD.n656 VDD.n655 129.472
R167 VDD.n598 VDD.n597 129.472
R168 VDD.n586 VDD.n585 129.472
R169 VDD.n523 VDD.n522 129.472
R170 VDD.n511 VDD.n510 129.472
R171 VDD.n449 VDD.n448 129.472
R172 VDD.n391 VDD.n390 129.472
R173 VDD.n379 VDD.n378 129.472
R174 VDD.n316 VDD.n315 129.472
R175 VDD.n304 VDD.n303 129.472
R176 VDD.n242 VDD.n241 129.472
R177 VDD.n51 VDD.n50 92.5
R178 VDD.n49 VDD.n48 92.5
R179 VDD.n47 VDD.n46 92.5
R180 VDD.n45 VDD.n44 92.5
R181 VDD.n53 VDD.n52 92.5
R182 VDD.n108 VDD.n107 92.5
R183 VDD.n106 VDD.n105 92.5
R184 VDD.n104 VDD.n103 92.5
R185 VDD.n102 VDD.n101 92.5
R186 VDD.n110 VDD.n109 92.5
R187 VDD.n161 VDD.n160 92.5
R188 VDD.n159 VDD.n158 92.5
R189 VDD.n157 VDD.n156 92.5
R190 VDD.n155 VDD.n154 92.5
R191 VDD.n163 VDD.n162 92.5
R192 VDD.n218 VDD.n217 92.5
R193 VDD.n216 VDD.n215 92.5
R194 VDD.n214 VDD.n213 92.5
R195 VDD.n212 VDD.n211 92.5
R196 VDD.n220 VDD.n219 92.5
R197 VDD.n275 VDD.n274 92.5
R198 VDD.n273 VDD.n272 92.5
R199 VDD.n271 VDD.n270 92.5
R200 VDD.n269 VDD.n268 92.5
R201 VDD.n277 VDD.n276 92.5
R202 VDD.n350 VDD.n349 92.5
R203 VDD.n348 VDD.n347 92.5
R204 VDD.n346 VDD.n345 92.5
R205 VDD.n344 VDD.n343 92.5
R206 VDD.n352 VDD.n351 92.5
R207 VDD.n425 VDD.n424 92.5
R208 VDD.n423 VDD.n422 92.5
R209 VDD.n421 VDD.n420 92.5
R210 VDD.n419 VDD.n418 92.5
R211 VDD.n427 VDD.n426 92.5
R212 VDD.n482 VDD.n481 92.5
R213 VDD.n480 VDD.n479 92.5
R214 VDD.n478 VDD.n477 92.5
R215 VDD.n476 VDD.n475 92.5
R216 VDD.n484 VDD.n483 92.5
R217 VDD.n557 VDD.n556 92.5
R218 VDD.n555 VDD.n554 92.5
R219 VDD.n553 VDD.n552 92.5
R220 VDD.n551 VDD.n550 92.5
R221 VDD.n559 VDD.n558 92.5
R222 VDD.n632 VDD.n631 92.5
R223 VDD.n630 VDD.n629 92.5
R224 VDD.n628 VDD.n627 92.5
R225 VDD.n626 VDD.n625 92.5
R226 VDD.n634 VDD.n633 92.5
R227 VDD.n689 VDD.n688 92.5
R228 VDD.n687 VDD.n686 92.5
R229 VDD.n685 VDD.n684 92.5
R230 VDD.n683 VDD.n682 92.5
R231 VDD.n691 VDD.n690 92.5
R232 VDD.n1445 VDD.n1444 92.5
R233 VDD.n1443 VDD.n1442 92.5
R234 VDD.n1441 VDD.n1440 92.5
R235 VDD.n1439 VDD.n1438 92.5
R236 VDD.n1447 VDD.n1446 92.5
R237 VDD.n1370 VDD.n1369 92.5
R238 VDD.n1368 VDD.n1367 92.5
R239 VDD.n1366 VDD.n1365 92.5
R240 VDD.n1364 VDD.n1363 92.5
R241 VDD.n1372 VDD.n1371 92.5
R242 VDD.n1313 VDD.n1312 92.5
R243 VDD.n1311 VDD.n1310 92.5
R244 VDD.n1309 VDD.n1308 92.5
R245 VDD.n1307 VDD.n1306 92.5
R246 VDD.n1315 VDD.n1314 92.5
R247 VDD.n1238 VDD.n1237 92.5
R248 VDD.n1236 VDD.n1235 92.5
R249 VDD.n1234 VDD.n1233 92.5
R250 VDD.n1232 VDD.n1231 92.5
R251 VDD.n1240 VDD.n1239 92.5
R252 VDD.n1163 VDD.n1162 92.5
R253 VDD.n1161 VDD.n1160 92.5
R254 VDD.n1159 VDD.n1158 92.5
R255 VDD.n1157 VDD.n1156 92.5
R256 VDD.n1165 VDD.n1164 92.5
R257 VDD.n1106 VDD.n1105 92.5
R258 VDD.n1104 VDD.n1103 92.5
R259 VDD.n1102 VDD.n1101 92.5
R260 VDD.n1100 VDD.n1099 92.5
R261 VDD.n1108 VDD.n1107 92.5
R262 VDD.n1031 VDD.n1030 92.5
R263 VDD.n1029 VDD.n1028 92.5
R264 VDD.n1027 VDD.n1026 92.5
R265 VDD.n1025 VDD.n1024 92.5
R266 VDD.n1033 VDD.n1032 92.5
R267 VDD.n956 VDD.n955 92.5
R268 VDD.n954 VDD.n953 92.5
R269 VDD.n952 VDD.n951 92.5
R270 VDD.n950 VDD.n949 92.5
R271 VDD.n958 VDD.n957 92.5
R272 VDD.n899 VDD.n898 92.5
R273 VDD.n897 VDD.n896 92.5
R274 VDD.n895 VDD.n894 92.5
R275 VDD.n893 VDD.n892 92.5
R276 VDD.n901 VDD.n900 92.5
R277 VDD.n820 VDD.n819 92.5
R278 VDD.n818 VDD.n817 92.5
R279 VDD.n816 VDD.n815 92.5
R280 VDD.n814 VDD.n813 92.5
R281 VDD.n822 VDD.n821 92.5
R282 VDD.n750 VDD.n749 92.5
R283 VDD.n748 VDD.n747 92.5
R284 VDD.n746 VDD.n745 92.5
R285 VDD.n744 VDD.n743 92.5
R286 VDD.n752 VDD.n751 92.5
R287 VDD.n14 VDD.n1 92.5
R288 VDD.n5 VDD.n4 92.5
R289 VDD.n7 VDD.n6 92.5
R290 VDD.n9 VDD.n8 92.5
R291 VDD.n11 VDD.n10 92.5
R292 VDD.n13 VDD.n12 92.5
R293 VDD.n21 VDD.n20 92.059
R294 VDD.n65 VDD.n64 92.059
R295 VDD.n118 VDD.n117 92.059
R296 VDD.n171 VDD.n170 92.059
R297 VDD.n228 VDD.n227 92.059
R298 VDD.n285 VDD.n284 92.059
R299 VDD.n360 VDD.n359 92.059
R300 VDD.n435 VDD.n434 92.059
R301 VDD.n492 VDD.n491 92.059
R302 VDD.n567 VDD.n566 92.059
R303 VDD.n642 VDD.n641 92.059
R304 VDD.n699 VDD.n698 92.059
R305 VDD.n1455 VDD.n1454 92.059
R306 VDD.n1380 VDD.n1379 92.059
R307 VDD.n1323 VDD.n1322 92.059
R308 VDD.n1248 VDD.n1247 92.059
R309 VDD.n1173 VDD.n1172 92.059
R310 VDD.n1116 VDD.n1115 92.059
R311 VDD.n1041 VDD.n1040 92.059
R312 VDD.n966 VDD.n965 92.059
R313 VDD.n909 VDD.n908 92.059
R314 VDD.n834 VDD.n833 92.059
R315 VDD.n758 VDD.n757 92.059
R316 VDD.n20 VDD.n16 67.194
R317 VDD.n20 VDD.n17 67.194
R318 VDD.n20 VDD.n18 67.194
R319 VDD.n20 VDD.n19 67.194
R320 VDD.n742 VDD.n741 44.141
R321 VDD.n891 VDD.n890 44.141
R322 VDD.n948 VDD.n947 44.141
R323 VDD.n1023 VDD.n1022 44.141
R324 VDD.n1098 VDD.n1097 44.141
R325 VDD.n1155 VDD.n1154 44.141
R326 VDD.n1230 VDD.n1229 44.141
R327 VDD.n1305 VDD.n1304 44.141
R328 VDD.n1362 VDD.n1361 44.141
R329 VDD.n1437 VDD.n1436 44.141
R330 VDD.n681 VDD.n680 44.141
R331 VDD.n624 VDD.n623 44.141
R332 VDD.n549 VDD.n548 44.141
R333 VDD.n474 VDD.n473 44.141
R334 VDD.n417 VDD.n416 44.141
R335 VDD.n342 VDD.n341 44.141
R336 VDD.n267 VDD.n266 44.141
R337 VDD.n210 VDD.n209 44.141
R338 VDD.n153 VDD.n152 44.141
R339 VDD.n100 VDD.n99 44.141
R340 VDD.n5 VDD.n3 44.141
R341 VDD.n890 VDD.n888 44.107
R342 VDD.n947 VDD.n945 44.107
R343 VDD.n1022 VDD.n1020 44.107
R344 VDD.n1097 VDD.n1095 44.107
R345 VDD.n1154 VDD.n1152 44.107
R346 VDD.n1229 VDD.n1227 44.107
R347 VDD.n1304 VDD.n1302 44.107
R348 VDD.n1361 VDD.n1359 44.107
R349 VDD.n1436 VDD.n1434 44.107
R350 VDD.n680 VDD.n678 44.107
R351 VDD.n623 VDD.n621 44.107
R352 VDD.n548 VDD.n546 44.107
R353 VDD.n473 VDD.n471 44.107
R354 VDD.n416 VDD.n414 44.107
R355 VDD.n341 VDD.n339 44.107
R356 VDD.n266 VDD.n264 44.107
R357 VDD.n209 VDD.n207 44.107
R358 VDD.n152 VDD.n150 44.107
R359 VDD.n99 VDD.n97 44.107
R360 VDD.n741 VDD.n739 44.107
R361 VDD.n3 VDD.n2 44.107
R362 VDD.n25  43.472
R363 VDD.n33 õ3€ 43.472
R364 VDD.n20 VDD.n15 41.052
R365 VDD.n59 VDD.n57 39.742
R366 VDD.n59 VDD.n58 39.742
R367 VDD.n61 VDD.n60 39.742
R368 VDD.n114 VDD.n113 39.742
R369 VDD.n167 VDD.n166 39.742
R370 VDD.n224 VDD.n223 39.742
R371 VDD.n281 VDD.n280 39.742
R372 VDD.n356 VDD.n355 39.742
R373 VDD.n431 VDD.n430 39.742
R374 VDD.n488 VDD.n487 39.742
R375 VDD.n563 VDD.n562 39.742
R376 VDD.n638 VDD.n637 39.742
R377 VDD.n695 VDD.n694 39.742
R378 VDD.n1451 VDD.n1450 39.742
R379 VDD.n1376 VDD.n1375 39.742
R380 VDD.n1319 VDD.n1318 39.742
R381 VDD.n1244 VDD.n1243 39.742
R382 VDD.n1169 VDD.n1168 39.742
R383 VDD.n1112 VDD.n1111 39.742
R384 VDD.n1037 VDD.n1036 39.742
R385 VDD.n962 VDD.n961 39.742
R386 VDD.n905 VDD.n904 39.742
R387 VDD.n754 VDD.n753 39.742
R388 VDD.n832 VDD.n829 39.742
R389 VDD.n832 VDD.n831 39.742
R390 VDD.n828 VDD.n827 39.742
R391 VDD.n99 VDD.n98 38
R392 VDD.n152 VDD.n151 38
R393 VDD.n209 VDD.n208 38
R394 VDD.n266 VDD.n265 38
R395 VDD.n341 VDD.n340 38
R396 VDD.n416 VDD.n415 38
R397 VDD.n473 VDD.n472 38
R398 VDD.n548 VDD.n547 38
R399 VDD.n623 VDD.n622 38
R400 VDD.n680 VDD.n679 38
R401 VDD.n1436 VDD.n1435 38
R402 VDD.n1361 VDD.n1360 38
R403 VDD.n1304 VDD.n1303 38
R404 VDD.n1229 VDD.n1228 38
R405 VDD.n1154 VDD.n1153 38
R406 VDD.n1097 VDD.n1096 38
R407 VDD.n1022 VDD.n1021 38
R408 VDD.n947 VDD.n946 38
R409 VDD.n890 VDD.n889 38
R410 VDD.n741 VDD.n740 38
R411 VDD.n888 VDD.n887 36.774
R412 VDD.n945 VDD.n944 36.774
R413 VDD.n1020 VDD.n1019 36.774
R414 VDD.n1095 VDD.n1094 36.774
R415 VDD.n1152 VDD.n1151 36.774
R416 VDD.n1227 VDD.n1226 36.774
R417 VDD.n1302 VDD.n1301 36.774
R418 VDD.n1359 VDD.n1358 36.774
R419 VDD.n1434 VDD.n1433 36.774
R420 VDD.n678 VDD.n677 36.774
R421 VDD.n621 VDD.n620 36.774
R422 VDD.n546 VDD.n545 36.774
R423 VDD.n471 VDD.n470 36.774
R424 VDD.n414 VDD.n413 36.774
R425 VDD.n339 VDD.n338 36.774
R426 VDD.n264 VDD.n263 36.774
R427 VDD.n207 VDD.n206 36.774
R428 VDD.n150 VDD.n149 36.774
R429 VDD.n97 VDD.n96 36.774
R430 VDD.n57 VDD.n56 36.774
R431 VDD.n831 VDD.n830 36.774
R432 VDD.n297 õ3€ 35.8
R433 VDD.n372 VDD.t170 35.8
R434 VDD.n504 VDD.t138 35.8
R435 VDD.n579  35.8
R436 VDD.n711 0ú3€ 35.8
R437 VDD.n1417 0ú3€ 35.8
R438 VDD.n1285  35.8
R439 VDD.n1210  35.8
R440 VDD.n1078 0ú3€ 35.8
R441 VDD.n1003 õ3€ 35.8
R442 VDD.n871  35.8
R443 VDD.n795  35.8
R444 VDD.n321 0ú3€ 33.243
R445 VDD.n396  33.243
R446 VDD.n528  33.243
R447 VDD.n603  33.243
R448 VDD.n735 0ú3€ 33.243
R449 VDD.n1393 0ú3€ 33.243
R450 VDD.n1261  33.243
R451 VDD.n1186  33.243
R452 VDD.n1054 0ú3€ 33.243
R453 VDD.n979 0ú3€ 33.243
R454 VDD.n847 0ú3€ 33.243
R455 VDD.n771 0ú3€ 33.243
R456 VDD.n1 VDD.n0 30.923
R457 VDD.n64 VDD.n62 26.38
R458 VDD.n64 VDD.n61 26.38
R459 VDD.n64 VDD.n59 26.38
R460 VDD.n64 VDD.n63 26.38
R461 VDD.n117 VDD.n115 26.38
R462 VDD.n117 VDD.n114 26.38
R463 VDD.n117 VDD.n116 26.38
R464 VDD.n170 VDD.n168 26.38
R465 VDD.n170 VDD.n167 26.38
R466 VDD.n170 VDD.n169 26.38
R467 VDD.n227 VDD.n225 26.38
R468 VDD.n227 VDD.n224 26.38
R469 VDD.n227 VDD.n226 26.38
R470 VDD.n284 VDD.n282 26.38
R471 VDD.n284 VDD.n281 26.38
R472 VDD.n284 VDD.n283 26.38
R473 VDD.n359 VDD.n357 26.38
R474 VDD.n359 VDD.n356 26.38
R475 VDD.n359 VDD.n358 26.38
R476 VDD.n434 VDD.n432 26.38
R477 VDD.n434 VDD.n431 26.38
R478 VDD.n434 VDD.n433 26.38
R479 VDD.n491 VDD.n489 26.38
R480 VDD.n491 VDD.n488 26.38
R481 VDD.n491 VDD.n490 26.38
R482 VDD.n566 VDD.n564 26.38
R483 VDD.n566 VDD.n563 26.38
R484 VDD.n566 VDD.n565 26.38
R485 VDD.n641 VDD.n639 26.38
R486 VDD.n641 VDD.n638 26.38
R487 VDD.n641 VDD.n640 26.38
R488 VDD.n698 VDD.n696 26.38
R489 VDD.n698 VDD.n695 26.38
R490 VDD.n698 VDD.n697 26.38
R491 VDD.n1454 VDD.n1452 26.38
R492 VDD.n1454 VDD.n1451 26.38
R493 VDD.n1454 VDD.n1453 26.38
R494 VDD.n1379 VDD.n1377 26.38
R495 VDD.n1379 VDD.n1376 26.38
R496 VDD.n1379 VDD.n1378 26.38
R497 VDD.n1322 VDD.n1320 26.38
R498 VDD.n1322 VDD.n1319 26.38
R499 VDD.n1322 VDD.n1321 26.38
R500 VDD.n1247 VDD.n1245 26.38
R501 VDD.n1247 VDD.n1244 26.38
R502 VDD.n1247 VDD.n1246 26.38
R503 VDD.n1172 VDD.n1170 26.38
R504 VDD.n1172 VDD.n1169 26.38
R505 VDD.n1172 VDD.n1171 26.38
R506 VDD.n1115 VDD.n1113 26.38
R507 VDD.n1115 VDD.n1112 26.38
R508 VDD.n1115 VDD.n1114 26.38
R509 VDD.n1040 VDD.n1038 26.38
R510 VDD.n1040 VDD.n1037 26.38
R511 VDD.n1040 VDD.n1039 26.38
R512 VDD.n965 VDD.n963 26.38
R513 VDD.n965 VDD.n962 26.38
R514 VDD.n965 VDD.n964 26.38
R515 VDD.n908 VDD.n906 26.38
R516 VDD.n908 VDD.n905 26.38
R517 VDD.n908 VDD.n907 26.38
R518 VDD.n757 VDD.n755 26.38
R519 VDD.n757 VDD.n754 26.38
R520 VDD.n757 VDD.n756 26.38
R521 VDD.n833 VDD.n832 26.38
R522 VDD.n833 VDD.n828 26.38
R523 VDD.n833 VDD.n826 26.38
R524 VDD.n833 VDD.n825 26.38
R525 VDD.n760 VDD.n752 22.915
R526 VDD.n23 VDD.n14 22.915
R527 VDD.n73  20.457
R528 VDD.n137  20.457
R529 VDD.n180 0ú3€ 20.457
R530 VDD.n237  20.457
R531 VDD.n444 0ú3€ 20.457
R532 VDD.n651  20.457
R533 VDD.n1345 õ3€ 20.457
R534 VDD.n1138 VDD.t186 20.457
R535 VDD.n931 0ú3€ 20.457
R536 VDD.n84 0ú3€ 17.9
R537 VDD.n126 õ3€ 17.9
R538 VDD.n193  17.9
R539 VDD.n250 õ3€ 17.9
R540 VDD.n457 ¿‘Ñ)ÃU 17.9
R541 VDD.n664 0ú3€ 17.9