* SPICE3 file created from TMRDFFSNQX1.ext - technology: sky130A

.subckt TMRDFFSNQX1 Q D CLK SN VDD GND
X0 VDD.t101 a_8357_1050.t5 a_8483_411.t4 ðÉ3	ËU sky130_fd_pr__pfet_01v8 ad=0p pd=0u as=0p ps=0u w=2u l=0.15u
X1 VDD.t113 D.t0 a_5101_1050.t4  sky130_fd_pr__pfet_01v8 ad=0p pd=0u as=0p ps=0u w=2u l=0.15u
X2 a_5227_411.t4 CLK.t0 VDD.t85 VDD.t84 sky130_fd_pr__pfet_01v8 ad=0p pd=0u as=0p ps=0u w=2u l=0.15u
X3 a_14869_1051.t5 a_3599_411.t7 a_15533_1051.t7 0œ¾­0 sky130_fd_pr__pfet_01v8 ad=0p pd=0u as=0p ps=0u w=2u l=0.15u
X4 VDD.t197 D.t1 a_217_1050.t3  sky130_fd_pr__pfet_01v8 ad=0p pd=0u as=0p ps=0u w=2u l=0.15u
X5 VDD.t138 a_1265_989.t5 a_1905_1050.t1 0œ¾­0 sky130_fd_pr__pfet_01v8 ad=0p pd=0u as=0p ps=0u w=2u l=0.15u
X6 a_9985_1050.t3 a_10111_411.t7 VDD.t1  sky130_fd_pr__pfet_01v8 ad=0p pd=0u as=0p ps=0u w=2u l=0.15u
X7 GND a_9985_1050.t6 a_11487_103.t0 GND sky130_fd_pr__nfet_01v8 ad=4.9019p pd=4.107u as=0p ps=0u w=0u l=0u
X8 VDD.t50 a_5101_1050.t5 a_6789_1050.t0 0œ¾­0 sky130_fd_pr__pfet_01v8 ad=0p pd=0u as=0p ps=0u w=2u l=0.15u
X9 a_15533_1051.t0 a_13367_411.t7 a_15044_209.t4  sky130_fd_pr__pfet_01v8 ad=0p pd=0u as=0p ps=0u w=2u l=0.15u
X10 a_6789_1050.t1 a_6149_989.t5 VDD.t53 0œ¾­0 sky130_fd_pr__pfet_01v8 ad=0p pd=0u as=0p ps=0u w=2u l=0.15u
X11 VDD.t36 a_11033_989.t5 a_11673_1050.t4  sky130_fd_pr__pfet_01v8 ad=0p pd=0u as=0p ps=0u w=2u l=0.15u
X12 a_3599_411.t0 a_1265_989.t6 VDD.t55 0œ¾­0 sky130_fd_pr__pfet_01v8 ad=0p pd=0u as=0p ps=0u w=2u l=0.15u
X13 a_13241_1050.t4 a_10111_411.t8 VDD.t127  sky130_fd_pr__pfet_01v8 ad=0p pd=0u as=0p ps=0u w=2u l=0.15u
X14 a_1905_1050.t4 a_217_1050.t5 VDD.t97 0œ¾­0 sky130_fd_pr__pfet_01v8 ad=0p pd=0u as=0p ps=0u w=2u l=0.15u
X15 VDD.t20 a_11673_1050.t7 a_11033_989.t0  sky130_fd_pr__pfet_01v8 ad=0p pd=0u as=0p ps=0u w=2u l=0.15u
X16 a_14869_1051.t1 a_8483_411.t8 a_15533_1051.t1 0œ¾­0 sky130_fd_pr__pfet_01v8 ad=0p pd=0u as=0p ps=0u w=2u l=0.15u
X17 VDD.t150 a_343_411.t7 a_217_1050.t4  sky130_fd_pr__pfet_01v8 ad=0p pd=0u as=0p ps=0u w=2u l=0.15u
X18 VDD.t93 a_5227_411.t7 a_5101_1050.t2 0œ¾­0 sky130_fd_pr__pfet_01v8 ad=0p pd=0u as=0p ps=0u w=2u l=0.15u
X19 GND a_11673_1050.t8 a_12470_101.t0 GND sky130_fd_pr__nfet_01v8 ad=0p pd=0u as=0p ps=0u w=0u l=0u
X20 a_11673_1050.t3 a_11033_989.t6 VDD.t61  sky130_fd_pr__pfet_01v8 ad=0p pd=0u as=0p ps=0u w=2u l=0.15u
X21 VDD.t87 a_217_1050.t6 a_343_411.t4 0œ¾­0 sky130_fd_pr__pfet_01v8 ad=0p pd=0u as=0p ps=0u w=2u l=0.15u
X22 a_3473_1050.t4 a_3599_411.t9 VDD.t184  sky130_fd_pr__pfet_01v8 ad=0p pd=0u as=0p ps=0u w=2u l=0.15u
X23 VDD.t174 a_13241_1050.t5 a_13367_411.t3 0œ¾­0 sky130_fd_pr__pfet_01v8 ad=0p pd=0u as=0p ps=0u w=2u l=0.15u
X24 a_10111_411.t2 CLK.t2 VDD.t18  sky130_fd_pr__pfet_01v8 ad=0p pd=0u as=0p ps=0u w=2u l=0.15u
X25 GND a_8483_411.t11 a_15430_101.t0 GND sky130_fd_pr__nfet_01v8 ad=0p pd=0u as=0p ps=0u w=0u l=0u
X26 a_5227_411.t1 a_6149_989.t7 VDD.t59 0œ¾­0 sky130_fd_pr__pfet_01v8 ad=0p pd=0u as=0p ps=0u w=2u l=0.15u
X27 VDD.t186 a_11033_989.t7 a_10111_411.t6  sky130_fd_pr__pfet_01v8 ad=0p pd=0u as=0p ps=0u w=2u l=0.15u
X28 VDD.t24 a_5227_411.t8 a_8357_1050.t1 0œ¾­0 sky130_fd_pr__pfet_01v8 ad=0p pd=0u as=0p ps=0u w=2u l=0.15u
X29 a_13241_1050.t2 a_13367_411.t9 VDD.t148  sky130_fd_pr__pfet_01v8 ad=0p pd=0u as=0p ps=0u w=2u l=0.15u
X30 a_6149_989.t2 CLK.t3 VDD.t14 0œ¾­0 sky130_fd_pr__pfet_01v8 ad=0p pd=0u as=0p ps=0u w=2u l=0.15u
X31 a_14869_1051.t3 a_8483_411.t9 VDD.t110  sky130_fd_pr__pfet_01v8 ad=0p pd=0u as=0p ps=0u w=2u l=0.15u
X32 VDD.t6 a_6149_989.t8 a_8483_411.t0 0œ¾­0 sky130_fd_pr__pfet_01v8 ad=0p pd=0u as=0p ps=0u w=2u l=0.15u
X33 a_13367_411.t4 a_13241_1050.t6 VDD.t176  sky130_fd_pr__pfet_01v8 ad=0p pd=0u as=0p ps=0u w=2u l=0.15u
X34 GND a_217_1050.t7 a_757_103.t0 GND sky130_fd_pr__nfet_01v8 ad=0p pd=0u as=0p ps=0u w=0u l=0u
X35 VDD.t136 a_13367_411.t10 a_14869_1051.t6 0œ¾­0 sky130_fd_pr__pfet_01v8 ad=0p pd=0u as=0p ps=0u w=2u l=0.15u
X36 GND D.t3 a_112_101.t0 GND sky130_fd_pr__nfet_01v8 ad=0p pd=0u as=0p ps=0u w=0u l=0u
X37 VDD.t12 CLK.t5 a_343_411.t6  sky130_fd_pr__pfet_01v8 ad=0p pd=0u as=0p ps=0u w=2u l=0.15u
X38 a_3473_1050.t1 a_343_411.t8 VDD.t28 0œ¾­0 sky130_fd_pr__pfet_01v8 ad=0p pd=0u as=0p ps=0u w=2u l=0.15u
X39 VDD.t44 a_1905_1050.t7 a_1265_989.t0  sky130_fd_pr__pfet_01v8 ad=0p pd=0u as=0p ps=0u w=2u l=0.15u
X40 a_8483_411.t6 SN.t2 VDD.t172 0œ¾­0 sky130_fd_pr__pfet_01v8 ad=0p pd=0u as=0p ps=0u w=2u l=0.15u
X41 VDD.t180 SN.t3 a_13367_411.t5  sky130_fd_pr__pfet_01v8 ad=0p pd=0u as=0p ps=0u w=2u l=0.15u
X42 a_10111_411.t0 a_9985_1050.t7 VDD.t74 0œ¾­0 sky130_fd_pr__pfet_01v8 ad=0p pd=0u as=0p ps=0u w=2u l=0.15u
X43 GND a_343_411.t9 a_3368_101.t0 GND sky130_fd_pr__nfet_01v8 ad=0p pd=0u as=0p ps=0u w=0u l=0u
X44 a_15533_1051.t2 a_8483_411.t10 a_14869_1051.t0  sky130_fd_pr__pfet_01v8 ad=0p pd=0u as=0p ps=0u w=2u l=0.15u
X45 VDD.t79 a_10111_411.t9 a_9985_1050.t2 0œ¾­0 sky130_fd_pr__pfet_01v8 ad=0p pd=0u as=0p ps=0u w=2u l=0.15u
X46 GND a_8357_1050.t7 a_8897_103.t0 GND sky130_fd_pr__nfet_01v8 ad=0p pd=0u as=0p ps=0u w=0u l=0u
X47 VDD.t170 SN.t4 a_11673_1050.t1  sky130_fd_pr__pfet_01v8 ad=0p pd=0u as=0p ps=0u w=2u l=0.15u
X48 a_6149_989.t4 a_6789_1050.t8 VDD.t178 0œ¾­0 sky130_fd_pr__pfet_01v8 ad=0p pd=0u as=0p ps=0u w=2u l=0.15u
X49 VDD.t66 a_3473_1050.t5 a_3599_411.t1  sky130_fd_pr__pfet_01v8 ad=0p pd=0u as=0p ps=0u w=2u l=0.15u
X50 VDD.t131 a_1265_989.t9 a_3599_411.t3 0œ¾­0 sky130_fd_pr__pfet_01v8 ad=0p pd=0u as=0p ps=0u w=2u l=0.15u
X51 VDD.t129 a_1265_989.t10 a_343_411.t2  sky130_fd_pr__pfet_01v8 ad=0p pd=0u as=0p ps=0u w=2u l=0.15u
X52 VDD.t144 a_15044_209.t7 Q.t2 0œ¾­0 sky130_fd_pr__pfet_01v8 ad=0p pd=0u as=0p ps=0u w=2u l=0.15u
X53 a_8483_411.t3 a_8357_1050.t6 VDD.t99  sky130_fd_pr__pfet_01v8 ad=0p pd=0u as=0p ps=0u w=2u l=0.15u
X54 VDD.t42 a_11033_989.t9 a_13367_411.t0 0œ¾­0 sky130_fd_pr__pfet_01v8 ad=0p pd=0u as=0p ps=0u w=2u l=0.15u
X55 VDD.t34 a_5101_1050.t6 a_5227_411.t6  sky130_fd_pr__pfet_01v8 ad=0p pd=0u as=0p ps=0u w=2u l=0.15u
X56 a_8483_411.t1 a_6149_989.t10 VDD.t72 0œ¾­0 sky130_fd_pr__pfet_01v8 ad=0p pd=0u as=0p ps=0u w=2u l=0.15u
X57 a_15533_1051.t4 a_3599_411.t10 a_14869_1051.t4  sky130_fd_pr__pfet_01v8 ad=0p pd=0u as=0p ps=0u w=2u l=0.15u
X58 a_217_1050.t2 D.t4 VDD.t191 0œ¾­0 sky130_fd_pr__pfet_01v8 ad=0p pd=0u as=0p ps=0u w=2u l=0.15u
X59 VDD.t77 D.t5 a_9985_1050.t1  sky130_fd_pr__pfet_01v8 ad=0p pd=0u as=0p ps=0u w=2u l=0.15u
X60 a_1905_1050.t0 a_1265_989.t11 VDD.t125 0œ¾­0 sky130_fd_pr__pfet_01v8 ad=0p pd=0u as=0p ps=0u w=2u l=0.15u
X61 GND D.t6 a_9880_101.t0 GND sky130_fd_pr__nfet_01v8 ad=0p pd=0u as=0p ps=0u w=0u l=0u
X62 a_6789_1050.t4 a_5101_1050.t7 VDD.t134  sky130_fd_pr__pfet_01v8 ad=0p pd=0u as=0p ps=0u w=2u l=0.15u
X63 VDD.t46 a_9985_1050.t8 a_11673_1050.t6 0œ¾­0 sky130_fd_pr__pfet_01v8 ad=0p pd=0u as=0p ps=0u w=2u l=0.15u
X64 GND a_217_1050.t8 a_1719_103.t0 GND sky130_fd_pr__nfet_01v8 ad=0p pd=0u as=0p ps=0u w=0u l=0u
X65 a_15044_209.t3 a_13367_411.t12 a_15533_1051.t3  sky130_fd_pr__pfet_01v8 ad=0p pd=0u as=0p ps=0u w=2u l=0.15u
X66 VDD.t168 SN.t7 a_3599_411.t5 0œ¾­0 sky130_fd_pr__pfet_01v8 ad=0p pd=0u as=0p ps=0u w=2u l=0.15u
X67 VDD.t166 SN.t8 a_6789_1050.t6  sky130_fd_pr__pfet_01v8 ad=0p pd=0u as=0p ps=0u w=2u l=0.15u
X68 a_11033_989.t1 a_11673_1050.t9 VDD.t26 0œ¾­0 sky130_fd_pr__pfet_01v8 ad=0p pd=0u as=0p ps=0u w=2u l=0.15u
X69 a_1905_1050.t6 SN.t9 VDD.t164  sky130_fd_pr__pfet_01v8 ad=0p pd=0u as=0p ps=0u w=2u l=0.15u
X70 a_5101_1050.t1 a_5227_411.t10 VDD.t91 0œ¾­0 sky130_fd_pr__pfet_01v8 ad=0p pd=0u as=0p ps=0u w=2u l=0.15u
X71 a_217_1050.t1 a_343_411.t10 VDD.t32  sky130_fd_pr__pfet_01v8 ad=0p pd=0u as=0p ps=0u w=2u l=0.15u
X72 GND a_10111_411.t12 a_13136_101.t0 GND sky130_fd_pr__nfet_01v8 ad=0p pd=0u as=0p ps=0u w=0u l=0u
X73 GND a_1905_1050.t8 a_2702_101.t0 GND sky130_fd_pr__nfet_01v8 ad=0p pd=0u as=0p ps=0u w=0u l=0u
X74 a_6789_1050.t5 SN.t10 VDD.t162 0œ¾­0 sky130_fd_pr__pfet_01v8 ad=0p pd=0u as=0p ps=0u w=2u l=0.15u
X75 a_15044_209.t1 a_3599_411.t11 a_15533_1051.t6  sky130_fd_pr__pfet_01v8 ad=0p pd=0u as=0p ps=0u w=2u l=0.15u
X76 VDD.t140 a_9985_1050.t9 a_10111_411.t3 0œ¾­0 sky130_fd_pr__pfet_01v8 ad=0p pd=0u as=0p ps=0u w=2u l=0.15u
X77 GND a_13241_1050.t7 a_13781_103.t0 GND sky130_fd_pr__nfet_01v8 ad=0p pd=0u as=0p ps=0u w=0u l=0u
X78 a_343_411.t3 a_217_1050.t9 VDD.t8  sky130_fd_pr__pfet_01v8 ad=0p pd=0u as=0p ps=0u w=2u l=0.15u
X79 VDD.t107 a_8483_411.t12 a_8357_1050.t2 0œ¾­0 sky130_fd_pr__pfet_01v8 ad=0p pd=0u as=0p ps=0u w=2u l=0.15u
X80 GND a_5227_411.t12 a_8252_101.t0 GND sky130_fd_pr__nfet_01v8 ad=0p pd=0u as=0p ps=0u w=0u l=0u
X81 Q a_15044_209.t8 GND.t28 GND sky130_fd_pr__nfet_01v8 ad=1.791p pd=1.57u as=0p ps=0u w=0u l=0u
X82 VDD.t70 a_6149_989.t12 a_6789_1050.t2  sky130_fd_pr__pfet_01v8 ad=0p pd=0u as=0p ps=0u w=2u l=0.15u
X83 GND a_5101_1050.t8 a_5641_103.t0 GND sky130_fd_pr__nfet_01v8 ad=0p pd=0u as=0p ps=0u w=0u l=0u
X84 VDD.t119 a_10111_411.t11 a_13241_1050.t3 0œ¾­0 sky130_fd_pr__pfet_01v8 ad=0p pd=0u as=0p ps=0u w=2u l=0.15u
X85 a_10111_411.t4 a_11033_989.t11 VDD.t142  sky130_fd_pr__pfet_01v8 ad=0p pd=0u as=0p ps=0u w=2u l=0.15u
X86 VDD.t16 a_217_1050.t10 a_1905_1050.t3 0œ¾­0 sky130_fd_pr__pfet_01v8 ad=0p pd=0u as=0p ps=0u w=2u l=0.15u
X87 a_8357_1050.t0 a_5227_411.t11 VDD.t22  sky130_fd_pr__pfet_01v8 ad=0p pd=0u as=0p ps=0u w=2u l=0.15u
X88 VDD.t146 a_6789_1050.t9 a_6149_989.t3 0œ¾­0 sky130_fd_pr__pfet_01v8 ad=0p pd=0u as=0p ps=0u w=2u l=0.15u
X89 a_11033_989.t4 CLK.t8 VDD.t3  sky130_fd_pr__pfet_01v8 ad=0p pd=0u as=0p ps=0u w=2u l=0.15u
X90 GND a_8483_411.t15 a_14764_101.t0 GND sky130_fd_pr__nfet_01v8 ad=0p pd=0u as=0p ps=0u w=0u l=0u
X91 a_5101_1050.t3 D.t7 VDD.t123 0œ¾­0 sky130_fd_pr__pfet_01v8 ad=0p pd=0u as=0p ps=0u w=2u l=0.15u
X92 a_343_411.t5 CLK.t10 VDD.t10  sky130_fd_pr__pfet_01v8 ad=0p pd=0u as=0p ps=0u w=2u l=0.15u
X93 a_14869_1051.t7 a_13367_411.t13 VDD.t199 0œ¾­0 sky130_fd_pr__pfet_01v8 ad=0p pd=0u as=0p ps=0u w=2u l=0.15u
X94 a_9985_1050.t0 D.t8 VDD.t63  sky130_fd_pr__pfet_01v8 ad=0p pd=0u as=0p ps=0u w=2u l=0.15u
X95 a_13367_411.t2 SN.t12 VDD.t160 0œ¾­0 sky130_fd_pr__pfet_01v8 ad=0p pd=0u as=0p ps=0u w=2u l=0.15u
X96 a_1265_989.t4 a_1905_1050.t9 VDD.t193  sky130_fd_pr__pfet_01v8 ad=0p pd=0u as=0p ps=0u w=2u l=0.15u
X97 VDD.t117 a_3599_411.t13 a_3473_1050.t3 0œ¾­0 sky130_fd_pr__pfet_01v8 ad=0p pd=0u as=0p ps=0u w=2u l=0.15u
X98 VDD.t40 CLK.t11 a_10111_411.t1  sky130_fd_pr__pfet_01v8 ad=0p pd=0u as=0p ps=0u w=2u l=0.15u
X99 a_11673_1050.t0 SN.t13 VDD.t158 0œ¾­0 sky130_fd_pr__pfet_01v8 ad=0p pd=0u as=0p ps=0u w=2u l=0.15u
X100 VDD.t57 CLK.t12 a_1265_989.t2  sky130_fd_pr__pfet_01v8 ad=0p pd=0u as=0p ps=0u w=2u l=0.15u
X101 GND a_5101_1050.t10 a_6603_103.t0 GND sky130_fd_pr__nfet_01v8 ad=0p pd=0u as=0p ps=0u w=0u l=0u
X102 VDD.t68 a_6149_989.t13 a_5227_411.t2 0œ¾­0 sky130_fd_pr__pfet_01v8 ad=0p pd=0u as=0p ps=0u w=2u l=0.15u
X103 VDD.t48 a_13367_411.t14 a_13241_1050.t1  sky130_fd_pr__pfet_01v8 ad=0p pd=0u as=0p ps=0u w=2u l=0.15u
X104 a_8357_1050.t3 a_8483_411.t13 VDD.t105 0œ¾­0 sky130_fd_pr__pfet_01v8 ad=0p pd=0u as=0p ps=0u w=2u l=0.15u
X105 a_3599_411.t6 a_3473_1050.t6 VDD.t182  sky130_fd_pr__pfet_01v8 ad=0p pd=0u as=0p ps=0u w=2u l=0.15u
X106 VDD.t30 CLK.t13 a_6149_989.t1 0œ¾­0 sky130_fd_pr__pfet_01v8 ad=0p pd=0u as=0p ps=0u w=2u l=0.15u
X107 GND a_3473_1050.t7 a_4013_103.t0 GND sky130_fd_pr__nfet_01v8 ad=0p pd=0u as=0p ps=0u w=0u l=0u
X108 VDD.t103 a_8483_411.t14 a_14869_1051.t2  sky130_fd_pr__pfet_01v8 ad=0p pd=0u as=0p ps=0u w=2u l=0.15u
X109 Q.t1 a_15044_209.t9 VDD.t195 0œ¾­0 sky130_fd_pr__pfet_01v8 ad=0p pd=0u as=0p ps=0u w=2u l=0.15u
X110 a_343_411.t1 a_1265_989.t13 VDD.t95  sky130_fd_pr__pfet_01v8 ad=0p pd=0u as=0p ps=0u w=2u l=0.15u
X111 VDD.t38 a_343_411.t12 a_3473_1050.t0 0œ¾­0 sky130_fd_pr__pfet_01v8 ad=0p pd=0u as=0p ps=0u w=2u l=0.15u
X112 a_5227_411.t5 a_5101_1050.t9 VDD.t81  sky130_fd_pr__pfet_01v8 ad=0p pd=0u as=0p ps=0u w=2u l=0.15u
X113 VDD.t156 SN.t15 a_8483_411.t5 0œ¾­0 sky130_fd_pr__pfet_01v8 ad=0p pd=0u as=0p ps=0u w=2u l=0.15u
X114 a_13367_411.t1 a_11033_989.t13 VDD.t115  sky130_fd_pr__pfet_01v8 ad=0p pd=0u as=0p ps=0u w=2u l=0.15u
X115 GND a_6789_1050.t7 a_7586_101.t0 GND sky130_fd_pr__nfet_01v8 ad=0p pd=0u as=0p ps=0u w=0u l=0u
X116 a_1265_989.t1 CLK.t14 VDD.t189 0œ¾­0 sky130_fd_pr__pfet_01v8 ad=0p pd=0u as=0p ps=0u w=2u l=0.15u
X117 VDD.t154 SN.t16 a_1905_1050.t5  sky130_fd_pr__pfet_01v8 ad=0p pd=0u as=0p ps=0u w=2u l=0.15u
X118 GND a_9985_1050.t5 a_10525_103.t0 GND sky130_fd_pr__nfet_01v8 ad=0p pd=0u as=0p ps=0u w=0u l=0u
X119 GND a_3599_411.t8 a_16096_101.t0 GND sky130_fd_pr__nfet_01v8 ad=0p pd=0u as=0p ps=0u w=0u l=0u
X120 GND D.t2 a_4996_101.t0 GND sky130_fd_pr__nfet_01v8 ad=0p pd=0u as=0p ps=0u w=0u l=0u
X121 a_11673_1050.t5 a_9985_1050.t10 VDD.t89 0œ¾­0 sky130_fd_pr__pfet_01v8 ad=0p pd=0u as=0p ps=0u w=2u l=0.15u
X122 VDD.t83 CLK.t15 a_5227_411.t3  sky130_fd_pr__pfet_01v8 ad=0p pd=0u as=0p ps=0u w=2u l=0.15u
X123 a_15533_1051.t5 a_3599_411.t15 a_15044_209.t0 0œ¾­0 sky130_fd_pr__pfet_01v8 ad=0p pd=0u as=0p ps=0u w=2u l=0.15u
X124 a_3599_411.t4 SN.t17 VDD.t152  sky130_fd_pr__pfet_01v8 ad=0p pd=0u as=0p ps=0u w=2u l=0.15u
X125 VDD.t121 CLK.t17 a_11033_989.t3 0œ¾­0 sky130_fd_pr__pfet_01v8 ad=0p pd=0u as=0p ps=0u w=2u l=0.15u
C0 SN VDD 1.76fF
C1 Q VDD 1.05fF
C2 SN D 9.38fF
C3 SN CLK 0.46fF
C4 VDD D 0.95fF
C5 VDD CLK 7.98fF
C6 D CLK 0.39fF
R0 a_8357_1050.n3 a_8357_1050.t5 512.525
R1 a_8357_1050.n4 a_8357_1050.t7 417.109
R2 a_8357_1050.n3 a_8357_1050.t6 371.139
R3 a_8357_1050.n7 a_8357_1050.n5 367.82
R4 a_8357_1050.n4 a_8357_1050.n3 179.837
R5 a_8357_1050.n2 a_8357_1050.n1 157.964
R6 a_8357_1050.n5 a_8357_1050.n2 104.282
R7 a_8357_1050.n2 a_8357_1050.n0 91.706
R8 a_8357_1050.n7 a_8357_1050.n6 15.218
R9 a_8357_1050.n0 a_8357_1050.t2 14.282
R10 a_8357_1050.n0 a_8357_1050.t3 14.282
R11 a_8357_1050.n1 a_8357_1050.t1 14.282
R12 a_8357_1050.n1 a_8357_1050.t0 14.282
R13 a_8357_1050.n8 a_8357_1050.n7 12.014
R14 a_8357_1050.n5 a_8357_1050.n4 10.615
R15 a_8483_411.n8 a_8483_411.t14 512.525
R16 a_8483_411.n6 a_8483_411.t8 477.179
R17 a_8483_411.n11 a_8483_411.t12 472.359
R18 a_8483_411.n7 a_8483_411.t11 440.954
R19 a_8483_411.n6 a_8483_411.t10 406.485
R20 a_8483_411.n11 a_8483_411.t13 384.527
R21 a_8483_411.n8 a_8483_411.t9 371.139
R22 a_8483_411.n10 a_8483_411.t15 350.777
R23 a_8483_411.n12 a_8483_411.t7 314.896
R24 a_8483_411.n16 a_8483_411.n14 308.216
R25 a_8483_411.n12 a_8483_411.n11 182.814
R26 a_8483_411.n14 a_8483_411.n5 179.199
R27 a_8483_411.n4 a_8483_411.n3 161.352
R28 a_8483_411.n5 a_8483_411.n1 95.095
R29 a_8483_411.n4 a_8483_411.n2 95.095
R30 a_8483_411.n10 a_8483_411.n9 83.75
R31 a_8483_411.n9 a_8483_411.n8 77.972
R32 a_8483_411.n5 a_8483_411.n4 66.258
R33 a_8483_411.n17 a_8483_411.n0 55.263
R34 a_8483_411.n16 a_8483_411.n15 30
R35 a_8483_411.n17 a_8483_411.n16 23.684
R36 a_8483_411.n13 a_8483_411.n10 23.649
R37 a_8483_411.n7 a_8483_411.n6 21.4
R38 a_8483_411.n1 a_8483_411.t0 14.282
R39 a_8483_411.n1 a_8483_411.t1 14.282
R40 a_8483_411.n2 a_8483_411.t5 14.282
R41 a_8483_411.n2 a_8483_411.t6 14.282
R42 a_8483_411.n3 a_8483_411.t4 14.282
R43 a_8483_411.n3 a_8483_411.t3 14.282
R44 a_8483_411.n13 a_8483_411.n12 8.685
R45 a_8483_411.n9 a_8483_411.n7 6.833
R46 a_8483_411.n14 a_8483_411.n13 4.65
R47 VDD.n790 VDD.n779 144.705
R48 VDD.n865 VDD.n858 144.705
R49 VDD.n940 VDD.n933 144.705
R50 VDD.n997 VDD.n990 144.705
R51 VDD.n1054 VDD.n1047 144.705
R52 VDD.n1129 VDD.n1122 144.705
R53 VDD.n1186 VDD.n1179 144.705
R54 VDD.n1261 VDD.n1254 144.705
R55 VDD.n1336 VDD.n1329 144.705
R56 VDD.n700 VDD.n693 144.705
R57 VDD.n1393 VDD.n1386 144.705
R58 VDD.n625 VDD.n618 144.705
R59 VDD.n568 VDD.n561 144.705
R60 VDD.n493 VDD.n486 144.705
R61 VDD.n418 VDD.n411 144.705
R62 VDD.n361 VDD.n354 144.705
R63 VDD.n304 VDD.n297 144.705
R64 VDD.n229 VDD.n222 144.705
R65 VDD.n172 VDD.n165 144.705
R66 VDD.n119 VDD.n112 144.705
R67 VDD.n66 VDD.n55 144.705
R68 VDD.n832 VDD.t129 143.754
R69 VDD.n907 VDD.t138 143.754
R70 VDD.n1096 VDD.t131 143.754
R71 VDD.n1228 VDD.t68 143.754
R72 VDD.n1303 VDD.t70 143.754
R73 VDD.n634 VDD.t6 143.754
R74 VDD.n502 VDD.t186 143.754
R75 VDD.n427 VDD.t36 143.754
R76 VDD.n238 VDD.t42 143.754
R77 VDD.n757 VDD.t150 143.754
R78 VDD.n965 VDD.t57 143.754
R79 VDD.n1022 VDD.t117 143.754
R80 VDD.n1154 VDD.t93 143.754
R81 VDD.n1361 VDD.t30 143.754
R82 VDD.n703 VDD.t107 143.754
R83 VDD.n571 VDD.t79 143.754
R84 VDD.n364 VDD.t121 143.754
R85 VDD.n307 VDD.t48 143.754
R86 VDD.n197 VDD.t110 135.539
R87 VDD.n175 VDD.t136 135.539
R88 VDD.n735 VDD.t191 135.17
R89 VDD.n797 VDD.t8 135.17
R90 VDD.n872 VDD.t97 135.17
R91 VDD.n943 VDD.t193 135.17
R92 VDD.n1000 VDD.t28 135.17
R93 VDD.n1061 VDD.t182 135.17
R94 VDD.n1132 VDD.t123 135.17
R95 VDD.n1193 VDD.t81 135.17
R96 VDD.n1268 VDD.t134 135.17
R97 VDD.n1339 VDD.t178 135.17
R98 VDD.n1396 VDD.t22 135.17
R99 VDD.n664 VDD.t99 135.17
R100 VDD.n593 VDD.t63 135.17
R101 VDD.n532 VDD.t74 135.17
R102 VDD.n457 VDD.t89 135.17
R103 VDD.n386 VDD.t26 135.17
R104 VDD.n329 VDD.t127 135.17
R105 VDD.n268 VDD.t176 135.17
R106 VDD.n35 VDD.t195 135.17
R107 VDD.n24 VDD.t144 135.17
R108 VDD.n185 VDD.n184 129.849
R109 VDD.n749 VDD.n748 129.472
R110 VDD.n807 VDD.n806 129.472
R111 VDD.n823 VDD.n822 129.472
R112 VDD.n882 VDD.n881 129.472
R113 VDD.n898 VDD.n897 129.472
R114 VDD.n957 VDD.n956 129.472
R115 VDD.n1014 VDD.n1013 129.472
R116 VDD.n1071 VDD.n1070 129.472
R117 VDD.n1087 VDD.n1086 129.472
R118 VDD.n1146 VDD.n1145 129.472
R119 VDD.n1203 VDD.n1202 129.472
R120 VDD.n1219 VDD.n1218 129.472
R121 VDD.n1278 VDD.n1277 129.472
R122 VDD.n1294 VDD.n1293 129.472
R123 VDD.n1353 VDD.n1352 129.472
R124 VDD.n1410 VDD.n1409 129.472
R125 VDD.n655 VDD.n654 129.472
R126 VDD.n643 VDD.n642 129.472
R127 VDD.n581 VDD.n580 129.472
R128 VDD.n523 VDD.n522 129.472
R129 VDD.n511 VDD.n510 129.472
R130 VDD.n448 VDD.n447 129.472
R131 VDD.n436 VDD.n435 129.472
R132 VDD.n374 VDD.n373 129.472
R133 VDD.n317 VDD.n316 129.472
R134 VDD.n259 VDD.n258 129.472
R135 VDD.n247 VDD.n246 129.472
R136 VDD.n51 VDD.n50 92.5
R137 VDD.n49 VDD.n48 92.5
R138 VDD.n47 VDD.n46 92.5
R139 VDD.n45 VDD.n44 92.5
R140 VDD.n53 VDD.n52 92.5
R141 VDD.n108 VDD.n107 92.5
R142 VDD.n106 VDD.n105 92.5
R143 VDD.n104 VDD.n103 92.5
R144 VDD.n102 VDD.n101 92.5
R145 VDD.n110 VDD.n109 92.5
R146 VDD.n161 VDD.n160 92.5
R147 VDD.n159 VDD.n158 92.5
R148 VDD.n157 VDD.n156 92.5
R149 VDD.n155 VDD.n154 92.5
R150 VDD.n163 VDD.n162 92.5
R151 VDD.n218 VDD.n217 92.5
R152 VDD.n216 VDD.n215 92.5
R153 VDD.n214 VDD.n213 92.5
R154 VDD.n212 VDD.n211 92.5
R155 VDD.n220 VDD.n219 92.5
R156 VDD.n293 VDD.n292 92.5
R157 VDD.n291 VDD.n290 92.5
R158 VDD.n289 VDD.n288 92.5
R159 VDD.n287 VDD.n286 92.5
R160 VDD.n295 VDD.n294 92.5
R161 VDD.n350 VDD.n349 92.5
R162 VDD.n348 VDD.n347 92.5
R163 VDD.n346 VDD.n345 92.5
R164 VDD.n344 VDD.n343 92.5
R165 VDD.n352 VDD.n351 92.5
R166 VDD.n407 VDD.n406 92.5
R167 VDD.n405 VDD.n404 92.5
R168 VDD.n403 VDD.n402 92.5
R169 VDD.n401 VDD.n400 92.5
R170 VDD.n409 VDD.n408 92.5
R171 VDD.n482 VDD.n481 92.5
R172 VDD.n480 VDD.n479 92.5
R173 VDD.n478 VDD.n477 92.5
R174 VDD.n476 VDD.n475 92.5
R175 VDD.n484 VDD.n483 92.5
R176 VDD.n557 VDD.n556 92.5
R177 VDD.n555 VDD.n554 92.5
R178 VDD.n553 VDD.n552 92.5
R179 VDD.n551 VDD.n550 92.5
R180 VDD.n559 VDD.n558 92.5
R181 VDD.n614 VDD.n613 92.5
R182 VDD.n612 VDD.n611 92.5
R183 VDD.n610 VDD.n609 92.5
R184 VDD.n608 VDD.n607 92.5
R185 VDD.n616 VDD.n615 92.5
R186 VDD.n689 VDD.n688 92.5
R187 VDD.n687 VDD.n686 92.5
R188 VDD.n685 VDD.n684 92.5
R189 VDD.n683 VDD.n682 92.5
R190 VDD.n691 VDD.n690 92.5
R191 VDD.n1382 VDD.n1381 92.5
R192 VDD.n1380 VDD.n1379 92.5
R193 VDD.n1378 VDD.n1377 92.5
R194 VDD.n1376 VDD.n1375 92.5
R195 VDD.n1384 VDD.n1383 92.5
R196 VDD.n1325 VDD.n1324 92.5
R197 VDD.n1323 VDD.n1322 92.5
R198 VDD.n1321 VDD.n1320 92.5
R199 VDD.n1319 VDD.n1318 92.5
R200 VDD.n1327 VDD.n1326 92.5
R201 VDD.n1250 VDD.n1249 92.5
R202 VDD.n1248 VDD.n1247 92.5
R203 VDD.n1246 VDD.n1245 92.5
R204 VDD.n1244 VDD.n1243 92.5
R205 VDD.n1252 VDD.n1251 92.5
R206 VDD.n1175 VDD.n1174 92.5
R207 VDD.n1173 VDD.n1172 92.5
R208 VDD.n1171 VDD.n1170 92.5
R209 VDD.n1169 VDD.n1168 92.5
R210 VDD.n1177 VDD.n1176 92.5
R211 VDD.n1118 VDD.n1117 92.5
R212 VDD.n1116 VDD.n1115 92.5
R213 VDD.n1114 VDD.n1113 92.5
R214 VDD.n1112 VDD.n1111 92.5
R215 VDD.n1120 VDD.n1119 92.5
R216 VDD.n1043 VDD.n1042 92.5
R217 VDD.n1041 VDD.n1040 92.5
R218 VDD.n1039 VDD.n1038 92.5
R219 VDD.n1037 VDD.n1036 92.5
R220 VDD.n1045 VDD.n1044 92.5
R221 VDD.n986 VDD.n985 92.5
R222 VDD.n984 VDD.n983 92.5
R223 VDD.n982 VDD.n981 92.5
R224 VDD.n980 VDD.n979 92.5
R225 VDD.n988 VDD.n987 92.5
R226 VDD.n929 VDD.n928 92.5
R227 VDD.n927 VDD.n926 92.5
R228 VDD.n925 VDD.n924 92.5
R229 VDD.n923 VDD.n922 92.5
R230 VDD.n931 VDD.n930 92.5
R231 VDD.n854 VDD.n853 92.5
R232 VDD.n852 VDD.n851 92.5
R233 VDD.n850 VDD.n849 92.5
R234 VDD.n848 VDD.n847 92.5
R235 VDD.n856 VDD.n855 92.5
R236 VDD.n775 VDD.n774 92.5
R237 VDD.n773 VDD.n772 92.5
R238 VDD.n771 VDD.n770 92.5
R239 VDD.n769 VDD.n768 92.5
R240 VDD.n777 VDD.n776 92.5
R241 VDD.n723 VDD.n722 92.5
R242 VDD.n721 VDD.n720 92.5
R243 VDD.n719 VDD.n718 92.5
R244 VDD.n717 VDD.n716 92.5
R245 VDD.n725 VDD.n724 92.5
R246 VDD.n14 VDD.n1 92.5
R247 VDD.n5 VDD.n4 92.5
R248 VDD.n7 VDD.n6 92.5
R249 VDD.n9 VDD.n8 92.5
R250 VDD.n11 VDD.n10 92.5
R251 VDD.n13 VDD.n12 92.5
R252 VDD.n21 VDD.n20 92.059
R253 VDD.n65 VDD.n64 92.059
R254 VDD.n118 VDD.n117 92.059
R255 VDD.n171 VDD.n170 92.059
R256 VDD.n228 VDD.n227 92.059
R257 VDD.n303 VDD.n302 92.059
R258 VDD.n360 VDD.n359 92.059
R259 VDD.n417 VDD.n416 92.059
R260 VDD.n492 VDD.n491 92.059
R261 VDD.n567 VDD.n566 92.059
R262 VDD.n624 VDD.n623 92.059
R263 VDD.n699 VDD.n698 92.059
R264 VDD.n1392 VDD.n1391 92.059
R265 VDD.n1335 VDD.n1334 92.059
R266 VDD.n1260 VDD.n1259 92.059
R267 VDD.n1185 VDD.n1184 92.059
R268 VDD.n1128 VDD.n1127 92.059
R269 VDD.n1053 VDD.n1052 92.059
R270 VDD.n996 VDD.n995 92.059
R271 VDD.n939 VDD.n938 92.059
R272 VDD.n864 VDD.n863 92.059
R273 VDD.n789 VDD.n788 92.059
R274 VDD.n731 VDD.n730 92.059
R275 VDD.n20 VDD.n16 67.194
R276 VDD.n20 VDD.n17 67.194
R277 VDD.n20 VDD.n18 67.194
R278 VDD.n20 VDD.n19 67.194
R279 VDD.n715 VDD.n714 44.141
R280 VDD.n846 VDD.n845 44.141
R281 VDD.n921 VDD.n920 44.141
R282 VDD.n978 VDD.n977 44.141
R283 VDD.n1035 VDD.n1034 44.141
R284 VDD.n1110 VDD.n1109 44.141
R285 VDD.n1167 VDD.n1166 44.141
R286 VDD.n1242 VDD.n1241 44.141
R287 VDD.n1317 VDD.n1316 44.141
R288 VDD.n1374 VDD.n1373 44.141
R289 VDD.n681 VDD.n680 44.141
R290 VDD.n606 VDD.n605 44.141
R291 VDD.n549 VDD.n548 44.141
R292 VDD.n474 VDD.n473 44.141
R293 VDD.n399 VDD.n398 44.141
R294 VDD.n342 VDD.n341 44.141
R295 VDD.n285 VDD.n284 44.141
R296 VDD.n210 VDD.n209 44.141
R297 VDD.n153 VDD.n152 44.141
R298 VDD.n100 VDD.n99 44.141
R299 VDD.n5 VDD.n3 44.141
R300 VDD.n845 VDD.n843 44.107
R301 VDD.n920 VDD.n918 44.107
R302 VDD.n977 VDD.n975 44.107
R303 VDD.n1034 VDD.n1032 44.107
R304 VDD.n1109 VDD.n1107 44.107
R305 VDD.n1166 VDD.n1164 44.107
R306 VDD.n1241 VDD.n1239 44.107
R307 VDD.n1316 VDD.n1314 44.107
R308 VDD.n1373 VDD.n1371 44.107
R309 VDD.n680 VDD.n678 44.107
R310 VDD.n605 VDD.n603 44.107
R311 VDD.n548 VDD.n546 44.107
R312 VDD.n473 VDD.n471 44.107
R313 VDD.n398 VDD.n396 44.107
R314 VDD.n341 VDD.n339 44.107
R315 VDD.n284 VDD.n282 44.107
R316 VDD.n209 VDD.n207 44.107
R317 VDD.n152 VDD.n150 44.107
R318 VDD.n99 VDD.n97 44.107
R319 VDD.n714 VDD.n712 44.107
R320 VDD.n3 VDD.n2 44.107
R321 VDD.n25 0œ¾­0 43.472
R322 VDD.n33 0œ¾­0 43.472
R323 VDD.n20 VDD.n15 41.052
R324 VDD.n59 VDD.n57 39.742
R325 VDD.n59 VDD.n58 39.742
R326 VDD.n61 VDD.n60 39.742
R327 VDD.n114 VDD.n113 39.742
R328 VDD.n167 VDD.n166 39.742
R329 VDD.n224 VDD.n223 39.742
R330 VDD.n299 VDD.n298 39.742
R331 VDD.n356 VDD.n355 39.742
R332 VDD.n413 VDD.n412 39.742
R333 VDD.n488 VDD.n487 39.742
R334 VDD.n563 VDD.n562 39.742
R335 VDD.n620 VDD.n619 39.742
R336 VDD.n695 VDD.n694 39.742
R337 VDD.n1388 VDD.n1387 39.742
R338 VDD.n1331 VDD.n1330 39.742
R339 VDD.n1256 VDD.n1255 39.742
R340 VDD.n1181 VDD.n1180 39.742
R341 VDD.n1124 VDD.n1123 39.742
R342 VDD.n1049 VDD.n1048 39.742
R343 VDD.n992 VDD.n991 39.742
R344 VDD.n935 VDD.n934 39.742
R345 VDD.n860 VDD.n859 39.742
R346 VDD.n727 VDD.n726 39.742
R347 VDD.n787 VDD.n784 39.742
R348 VDD.n787 VDD.n786 39.742
R349 VDD.n783 VDD.n782 39.742
R350 VDD.n99 VDD.n98 38
R351 VDD.n152 VDD.n151 38
R352 VDD.n209 VDD.n208 38
R353 VDD.n284 VDD.n283 38
R354 VDD.n341 VDD.n340 38
R355 VDD.n398 VDD.n397 38
R356 VDD.n473 VDD.n472 38
R357 VDD.n548 VDD.n547 38
R358 VDD.n605 VDD.n604 38
R359 VDD.n680 VDD.n679 38
R360 VDD.n1373 VDD.n1372 38
R361 VDD.n1316 VDD.n1315 38
R362 VDD.n1241 VDD.n1240 38
R363 VDD.n1166 VDD.n1165 38
R364 VDD.n1109 VDD.n1108 38
R365 VDD.n1034 VDD.n1033 38
R366 VDD.n977 VDD.n976 38
R367 VDD.n920 VDD.n919 38
R368 VDD.n845 VDD.n844 38
R369 VDD.n714 VDD.n713 38
R370 VDD.n843 VDD.n842 36.774
R371 VDD.n918 VDD.n917 36.774
R372 VDD.n975 VDD.n974 36.774
R373 VDD.n1032 VDD.n1031 36.774
R374 VDD.n1107 VDD.n1106 36.774
R375 VDD.n1164 VDD.n1163 36.774
R376 VDD.n1239 VDD.n1238 36.774
R377 VDD.n1314 VDD.n1313 36.774
R378 VDD.n1371 VDD.n1370 36.774
R379 VDD.n678 VDD.n677 36.774
R380 VDD.n603 VDD.n602 36.774
R381 VDD.n546 VDD.n545 36.774
R382 VDD.n471 VDD.n470 36.774
R383 VDD.n396 VDD.n395 36.774
R384 VDD.n339 VDD.n338 36.774
R385 VDD.n282 VDD.n281 36.774
R386 VDD.n207 VDD.n206 36.774
R387 VDD.n150 VDD.n149 36.774
R388 VDD.n97 VDD.n96 36.774
R389 VDD.n57 VDD.n56 36.774
R390 VDD.n786 VDD.n785 36.774
R391 VDD.n240 0œ¾­0 35.8
R392 VDD.n429  35.8
R393 VDD.n504  35.8
R394 VDD.n636 0œ¾­0 35.8
R395 VDD.n1297  35.8
R396 VDD.n1222 0œ¾­0 35.8
R397 VDD.n1090 0œ¾­0 35.8
R398 VDD.n901 0œ¾­0 35.8
R399 VDD.n826  35.8
R400 VDD.n264  33.243
R401 VDD.n453 0œ¾­0 33.243
R402 VDD.n528 0œ¾­0 33.243
R403 VDD.n660  33.243
R404 VDD.n1273  33.243
R405 VDD.n1198  33.243
R406 VDD.n1066  33.243
R407 VDD.n877 0œ¾­0 33.243
R408 VDD.n802  33.243
R409 VDD.n1 VDD.n0 30.923
R410 VDD.n64 VDD.n62 26.38
R411 VDD.n64 VDD.n61 26.38
R412 VDD.n64 VDD.n59 26.38
R413 VDD.n64 VDD.n63 26.38
R414 VDD.n117 VDD.n115 26.38
R415 VDD.n117 VDD.n114 26.38
R416 VDD.n117 VDD.n116 26.38
R417 VDD.n170 VDD.n168 26.38
R418 VDD.n170 VDD.n167 26.38
R419 VDD.n170 VDD.n169 26.38
R420 VDD.n227 VDD.n225 26.38
R421 VDD.n227 VDD.n224 26.38
R422 VDD.n227 VDD.n226 26.38
R423 VDD.n302 VDD.n300 26.38
R424 VDD.n302 VDD.n299 26.38
R425 VDD.n302 VDD.n301 26.38
R426 VDD.n359 VDD.n357 26.38
R427 VDD.n359 VDD.n356 26.38
R428 VDD.n359 VDD.n358 26.38
R429 VDD.n416 VDD.n414 26.38
R430 VDD.n416 VDD.n413 26.38
R431 VDD.n416 VDD.n415 26.38
R432 VDD.n491 VDD.n489 26.38
R433 VDD.n491 VDD.n488 26.38
R434 VDD.n491 VDD.n490 26.38
R435 VDD.n566 VDD.n564 26.38
R436 VDD.n566 VDD.n563 26.38
R437 VDD.n566 VDD.n565 26.38
R438 VDD.n623 VDD.n621 26.38
R439 VDD.n623 VDD.n620 26.38
R440 VDD.n623 VDD.n622 26.38
R441 VDD.n698 VDD.n696 26.38
R442 VDD.n698 VDD.n695 26.38
R443 VDD.n698 VDD.n697 26.38
R444 VDD.n1391 VDD.n1389 26.38
R445 VDD.n1391 VDD.n1388 26.38
R446 VDD.n1391 VDD.n1390 26.38
R447 VDD.n1334 VDD.n1332 26.38
R448 VDD.n1334 VDD.n1331 26.38
R449 VDD.n1334 VDD.n1333 26.38
R450 VDD.n1259 VDD.n1257 26.38
R451 VDD.n1259 VDD.n1256 26.38
R452 VDD.n1259 VDD.n1258 26.38
R453 VDD.n1184 VDD.n1182 26.38
R454 VDD.n1184 VDD.n1181 26.38
R455 VDD.n1184 VDD.n1183 26.38
R456 VDD.n1127 VDD.n1125 26.38
R457 VDD.n1127 VDD.n1124 26.38
R458 VDD.n1127 VDD.n1126 26.38
R459 VDD.n1052 VDD.n1050 26.38
R460 VDD.n1052 VDD.n1049 26.38
R461 VDD.n1052 VDD.n1051 26.38
R462 VDD.n995 VDD.n993 26.38
R463 VDD.n995 VDD.n992 26.38
R464 VDD.n995 VDD.n994 26.38
R465 VDD.n938 VDD.n936 26.38
R466 VDD.n938 VDD.n935 26.38
R467 VDD.n938 VDD.n937 26.38
R468 VDD.n863 VDD.n861 26.38
R469 VDD.n863 VDD.n860 26.38
R470 VDD.n863 VDD.n862 26.38
R471 VDD.n730 VDD.n728 26.38
R472 VDD.n730 VDD.n727 26.38
R473 VDD.n730 VDD.n729 26.38
R474 VDD.n788 VDD.n787 26.38
R475 VDD.n788 VDD.n783 26.38
R476 VDD.n788 VDD.n781 26.38
R477 VDD.n788 VDD.n780 26.38
R478 VDD.n733 VDD.n725 22.915
R479 VDD.n23 VDD.n14 22.915
R480 VDD.n73  20.457
R481 VDD.n137  20.457
R482 VDD.n180 0œ¾­0 20.457
R483 VDD.n312  20.457
R484 VDD.n369 0œ¾­0 20.457
R485 VDD.n576 0œ¾­0 20.457
R486 VDD.n708 0œ¾­0 20.457
R487 VDD.n1357 0œ¾­0 20.457
R488 VDD.n1150 0œ¾­0 20.457
R489 VDD.n1018 0œ¾­0 20.457
R490 VDD.n961  20.457
R491 VDD.n753  20.457
R492 VDD.n84  17.9
R493 VDD.n126 0œ¾­0 17.9
R494 VDD.n193  17.9
R495 VDD.n325  17.9
R496 VDD.n382 0œ¾­0 17.9
R497 VDD.n589  17.9
R498 VDD.n1401  17.9
R499 VDD.n1344 0œ¾­0 17.9
R500 VDD.n1137 0œ¾­0 17.9
R501 VDD.n1005 0œ¾­0 17.9
R502 VDD.n948  17.9
R503 VDD.n740 0œ¾­0 17.9
R504 VDD.n244  15.343
R505 VDD.n433  15.343
R506 VDD.n508  15.343
R507 VDD.n640 0œ¾­0 15.343
R508 VDD.n1291 0œ¾­0 15.343
R509 VDD.n1216 0œ¾­0 15.343
R510 VDD.n1084 0œ¾­0 15.343
R511 VDD.n895 0œ¾­0 15.343
R512 VDD.n820  15.343
R513 VDD.n725 VDD.n723 14.864
R514 VDD.n723 VDD.n721 14.864
R515 VDD.n721 VDD.n719 14.864
R516 VDD.n719 VDD.n717 14.864
R517 VDD.n717 VDD.n715 14.864
R518 VDD.n856 VDD.n854 14.864
R519 VDD.n854 VDD.n852 14.864
R520 VDD.n852 VDD.n850 14.864
R521 VDD.n850 VDD.n848 14.864
R522 VDD.n848 VDD.n846 14.864
R523 VDD.n931 VDD.n929 14.864
R524 VDD.n929 VDD.n927 14.864
R525 VDD.n927 VDD.n925 14.864
R526 VDD.n925 VDD.n923 14.864
R527 VDD.n923 VDD.n921 14.864
R528 VDD.n988 VDD.n986 14.864
R529 VDD.n986 VDD.n984 14.864
R530 VDD.n984 VDD.n982 14.864
R531 VDD.n982 VDD.n980 14.864
R532 VDD.n980 VDD.n978 14.864
R533 VDD.n1045 VDD.n1043 14.864
R534 VDD.n1043 VDD.n1041 14.864
R535 VDD.n1041 VDD.n1039 14.864
R536 VDD.n1039 VDD.n1037 14.864
R537 VDD.n1037 VDD.n1035 14.864
R538 VDD.n1120 VDD.n1118 14.864
R539 VDD.n1118 VDD.n1116 14.864
R540 VDD.n1116 VDD.n1114 14.864
R541 VDD.n1114 VDD.n1112 14.864
R542 VDD.n1112 VDD.n1110 14.864
R543 VDD.n1177 VDD.n1175 14.864
R544 VDD.n1175 VDD.n1173 14.864
R545 VDD.n1173 VDD.n1171 14.864
R546 VDD.n1171 VDD.n1169 14.864
R547 VDD.n1169 VDD.n1167 14.864
R548 VDD.n1252 VDD.n1250 14.864
R549 VDD.n1250 VDD.n1248 14.864
R550 VDD.n1248 VDD.n1246 14.864
R551 VDD.n1246 VDD.n1244 14.864
R552 VDD.n1244 VDD.n1242 14.864
R553 VDD.n1327 VDD.n1325 14.864
R554 VDD.n1325 VDD.n1323 14.864
R555 VDD.n1323 VDD.n1321 14.864