* SPICE3 file created from TMRDFFQNX1.ext - technology: sky130A

.subckt TMRDFFQNX1 QN D CLK VDD GND
X0 QN a_3303_411.t5 a_13654_101.t0 GND sky130_fd_pr__nfet_01v8 ad=5.373p pd=4.72u as=0p ps=0u w=0u l=0u
X1 GND a_3303_411.t6 a_14320_101.t0 GND sky130_fd_pr__nfet_01v8 ad=3.7611p pd=3.297u as=0p ps=0u w=0u l=0u
X2 VDD.t146 a_8731_187.t5 a_8861_1050.t5 ∞œüHwU sky130_fd_pr__pfet_01v8 ad=0p pd=0u as=0p ps=0u w=2u l=0.15u
X3 a_3177_1050.t4 a_277_1050.t7 VDD.t165 êBvIwU sky130_fd_pr__pfet_01v8 ad=0p pd=0u as=0p ps=0u w=2u l=0.15u
X4 VDD.t79 a_1845_1050.t5 a_147_187.t1  sky130_fd_pr__pfet_01v8 ad=0p pd=0u as=0p ps=0u w=2u l=0.15u
X5 a_11887_411.t1 a_11761_1050.t5 VDD.t101 VDD.t100 sky130_fd_pr__pfet_01v8 ad=0p pd=0u as=0p ps=0u w=2u l=0.15u
X6 VDD.t17 D.t0 a_9183_989.t3  <p} sky130_fd_pr__pfet_01v8 ad=0p pd=0u as=0p ps=0u w=2u l=0.15u
X7 VDD.t13 D.t1 a_4891_989.t2 ;p} sky130_fd_pr__pfet_01v8 ad=0p pd=0u as=0p ps=0u w=2u l=0.15u
X8 VDD.t46 a_7469_1050.t5 a_7595_411.t2  <p} sky130_fd_pr__pfet_01v8 ad=0p pd=0u as=0p ps=0u w=2u l=0.15u
X9 GND a_8731_187.t8 a_8675_103.t0 GND sky130_fd_pr__nfet_01v8 ad=0p pd=0u as=0p ps=0u w=0u l=0u
X10 VDD.t128 CLK.t0 a_277_1050.t5 ;p} sky130_fd_pr__pfet_01v8 ad=0p pd=0u as=0p ps=0u w=2u l=0.15u
X11 GND a_7469_1050.t6 a_8030_101.t0 GND sky130_fd_pr__nfet_01v8 ad=0p pd=0u as=0p ps=0u w=0u l=0u
X12 a_13757_1051.t7 a_7595_411.t6 QN.t1  <p} sky130_fd_pr__pfet_01v8 ad=0p pd=0u as=0p ps=0u w=2u l=0.15u
X13 a_3177_1050.t1 a_3303_411.t7 VDD.t53 ;p} sky130_fd_pr__pfet_01v8 ad=0p pd=0u as=0p ps=0u w=2u l=0.15u
X14 VDD.t126 CLK.t1 a_147_187.t4  <p} sky130_fd_pr__pfet_01v8 ad=0p pd=0u as=0p ps=0u w=2u l=0.15u
X15 a_11887_411.t4 a_8731_187.t7 VDD.t144 ;p} sky130_fd_pr__pfet_01v8 ad=0p pd=0u as=0p ps=0u w=2u l=0.15u
X16 VDD.t97 a_11887_411.t5 a_11761_1050.t4  <p} sky130_fd_pr__pfet_01v8 ad=0p pd=0u as=0p ps=0u w=2u l=0.15u
X17 GND a_1845_1050.t6 a_2406_101.t0 GND sky130_fd_pr__nfet_01v8 ad=0p pd=0u as=0p ps=0u w=0u l=0u
X18 VDD.t124 CLK.t2 a_4439_187.t4 ;p} sky130_fd_pr__pfet_01v8 ad=0p pd=0u as=0p ps=0u w=2u l=0.15u
X19 a_9183_989.t2 D.t2 VDD.t40  <p} sky130_fd_pr__pfet_01v8 ad=0p pd=0u as=0p ps=0u w=2u l=0.15u
X20 GND a_8861_1050.t8 a_9658_101.t0 GND sky130_fd_pr__nfet_01v8 ad=0p pd=0u as=0p ps=0u w=0u l=0u
X21 a_3303_411.t1 a_3177_1050.t5 VDD.t163 ;p} sky130_fd_pr__pfet_01v8 ad=0p pd=0u as=0p ps=0u w=2u l=0.15u
X22 VDD.t44 a_599_989.t5 a_277_1050.t1  <p} sky130_fd_pr__pfet_01v8 ad=0p pd=0u as=0p ps=0u w=2u l=0.15u
X23 VDD.t167 a_277_1050.t9 a_599_989.t4 ;p} sky130_fd_pr__pfet_01v8 ad=0p pd=0u as=0p ps=0u w=2u l=0.15u
X24 a_8731_187.t1 a_10429_1050.t5 VDD.t71  <p} sky130_fd_pr__pfet_01v8 ad=0p pd=0u as=0p ps=0u w=2u l=0.15u
X25 a_4569_1050.t3 a_4891_989.t6 VDD.t94 ;p} sky130_fd_pr__pfet_01v8 ad=0p pd=0u as=0p ps=0u w=2u l=0.15u
X26 a_13757_1051.t3 a_3303_411.t8 QN.t2  <p} sky130_fd_pr__pfet_01v8 ad=0p pd=0u as=0p ps=0u w=2u l=0.15u
X27 VDD.t5 a_9183_989.t5 a_10429_1050.t1 ;p} sky130_fd_pr__pfet_01v8 ad=0p pd=0u as=0p ps=0u w=2u l=0.15u
X28 VDD.t83 a_147_187.t6 a_3303_411.t4  <p} sky130_fd_pr__pfet_01v8 ad=0p pd=0u as=0p ps=0u w=2u l=0.15u
X29 a_7595_411.t3 a_7469_1050.t7 VDD.t130 ;p} sky130_fd_pr__pfet_01v8 ad=0p pd=0u as=0p ps=0u w=2u l=0.15u
X30 VDD.t161 a_4569_1050.t7 a_7469_1050.t4  <p} sky130_fd_pr__pfet_01v8 ad=0p pd=0u as=0p ps=0u w=2u l=0.15u
X31 a_4439_187.t3 CLK.t3 VDD.t122 ;p} sky130_fd_pr__pfet_01v8 ad=0p pd=0u as=0p ps=0u w=2u l=0.15u
X32 a_1845_1050.t3 a_147_187.t7 VDD.t64  <p} sky130_fd_pr__pfet_01v8 ad=0p pd=0u as=0p ps=0u w=2u l=0.15u
X33 a_8861_1050.t1 a_9183_989.t6 VDD.t106 ;p} sky130_fd_pr__pfet_01v8 ad=0p pd=0u as=0p ps=0u w=2u l=0.15u
X34 VDD.t77 a_4439_187.t5 a_4569_1050.t6  <p} sky130_fd_pr__pfet_01v8 ad=0p pd=0u as=0p ps=0u w=2u l=0.15u
X35 GND a_147_187.t10 a_91_103.t0 GND sky130_fd_pr__nfet_01v8 ad=0p pd=0u as=0p ps=0u w=0u l=0u
X36 a_6137_1050.t1 a_4439_187.t6 VDD.t73 ;p} sky130_fd_pr__pfet_01v8 ad=0p pd=0u as=0p ps=0u w=2u l=0.15u
X37 a_9183_989.t1 a_8861_1050.t7 VDD.t36  <p} sky130_fd_pr__pfet_01v8 ad=0p pd=0u as=0p ps=0u w=2u l=0.15u
X38 QN a_7595_411.t10 a_14320_101.t0 GND sky130_fd_pr__nfet_01v8 ad=0p pd=0u as=0p ps=0u w=0u l=0u
X39 GND a_8861_1050.t10 a_11656_101.t0 GND sky130_fd_pr__nfet_01v8 ad=0p pd=0u as=0p ps=0u w=0u l=0u
X40 a_13093_1051.t5 a_3303_411.t9 a_13757_1051.t5 ;p} sky130_fd_pr__pfet_01v8 ad=0p pd=0u as=0p ps=0u w=2u l=0.15u
X41 a_11761_1050.t0 a_11887_411.t6 VDD.t1  <p} sky130_fd_pr__pfet_01v8 ad=0p pd=0u as=0p ps=0u w=2u l=0.15u
X42 a_3303_411.t3 a_147_187.t8 VDD.t28 ;p} sky130_fd_pr__pfet_01v8 ad=0p pd=0u as=0p ps=0u w=2u l=0.15u
X43 VDD.t153 a_7595_411.t8 a_13093_1051.t7  <p} sky130_fd_pr__pfet_01v8 ad=0p pd=0u as=0p ps=0u w=2u l=0.15u
X44 VDD.t159 D.t4 a_599_989.t2 ;p} sky130_fd_pr__pfet_01v8 ad=0p pd=0u as=0p ps=0u w=2u l=0.15u
X45 GND a_10429_1050.t6 a_10990_101.t0 GND sky130_fd_pr__nfet_01v8 ad=0p pd=0u as=0p ps=0u w=0u l=0u
X46 GND a_4439_187.t8 a_4383_103.t0 GND sky130_fd_pr__nfet_01v8 ad=0p pd=0u as=0p ps=0u w=0u l=0u
X47 a_13757_1051.t1 a_11887_411.t7 a_13093_1051.t3  <p} sky130_fd_pr__pfet_01v8 ad=0p pd=0u as=0p ps=0u w=2u l=0.15u
X48 a_8731_187.t3 CLK.t4 VDD.t120 ;p} sky130_fd_pr__pfet_01v8 ad=0p pd=0u as=0p ps=0u w=2u l=0.15u
X49 VDD.t142 a_8731_187.t10 a_10429_1050.t3  <p} sky130_fd_pr__pfet_01v8 ad=0p pd=0u as=0p ps=0u w=2u l=0.15u
X50 a_277_1050.t0 a_147_187.t9 VDD.t7 ;p} sky130_fd_pr__pfet_01v8 ad=0p pd=0u as=0p ps=0u w=2u l=0.15u
X51 a_4439_187.t1 a_6137_1050.t6 VDD.t9  <p} sky130_fd_pr__pfet_01v8 ad=0p pd=0u as=0p ps=0u w=2u l=0.15u
X52 VDD.t21 a_7595_411.t9 a_7469_1050.t2 ;p} sky130_fd_pr__pfet_01v8 ad=0p pd=0u as=0p ps=0u w=2u l=0.15u
X53 VDD.t118 CLK.t5 a_4569_1050.t1  <p} sky130_fd_pr__pfet_01v8 ad=0p pd=0u as=0p ps=0u w=2u l=0.15u
X54 VDD.t51 a_599_989.t7 a_1845_1050.t0 ;p} sky130_fd_pr__pfet_01v8 ad=0p pd=0u as=0p ps=0u w=2u l=0.15u
X55 a_11761_1050.t2 a_8861_1050.t9 VDD.t34  <p} sky130_fd_pr__pfet_01v8 ad=0p pd=0u as=0p ps=0u w=2u l=0.15u
X56 GND a_599_989.t8 a_1740_101.t0 GND sky130_fd_pr__nfet_01v8 ad=0p pd=0u as=0p ps=0u w=0u l=0u
X57 GND a_4569_1050.t8 a_5366_101.t0 GND sky130_fd_pr__nfet_01v8 ad=0p pd=0u as=0p ps=0u w=0u l=0u
X58 VDD.t169 a_11887_411.t8 a_13093_1051.t1 ;p} sky130_fd_pr__pfet_01v8 ad=0p pd=0u as=0p ps=0u w=2u l=0.15u
X59 GND a_11887_411.t9 a_13654_101.t0 GND sky130_fd_pr__nfet_01v8 ad=0p pd=0u as=0p ps=0u w=0u l=0u
X60 a_4891_989.t1 D.t5 VDD.t148  <p} sky130_fd_pr__pfet_01v8 ad=0p pd=0u as=0p ps=0u w=2u l=0.15u
X61 a_13757_1051.t4 a_3303_411.t11 a_13093_1051.t4 ;p} sky130_fd_pr__pfet_01v8 ad=0p pd=0u as=0p ps=0u w=2u l=0.15u
X62 GND a_11887_411.t10 a_12988_101.t0 GND sky130_fd_pr__nfet_01v8 ad=0p pd=0u as=0p ps=0u w=0u l=0u
X63 a_277_1050.t4 CLK.t8 VDD.t116  <p} sky130_fd_pr__pfet_01v8 ad=0p pd=0u as=0p ps=0u w=2u l=0.15u
X64 VDD.t92 a_4891_989.t8 a_4569_1050.t2 ;p} sky130_fd_pr__pfet_01v8 ad=0p pd=0u as=0p ps=0u w=2u l=0.15u
X65 VDD.t38 a_277_1050.t10 a_3177_1050.t3  <p} sky130_fd_pr__pfet_01v8 ad=0p pd=0u as=0p ps=0u w=2u l=0.15u
X66 a_147_187.t3 CLK.t9 VDD.t114 ;p} sky130_fd_pr__pfet_01v8 ad=0p pd=0u as=0p ps=0u w=2u l=0.15u
X67 VDD.t25 a_11761_1050.t6 a_11887_411.t0  <p} sky130_fd_pr__pfet_01v8 ad=0p pd=0u as=0p ps=0u w=2u l=0.15u
X68 GND a_3177_1050.t6 a_3738_101.t0 GND sky130_fd_pr__nfet_01v8 ad=0p pd=0u as=0p ps=0u w=0u l=0u
X69 GND a_4569_1050.t11 a_7364_101.t0 GND sky130_fd_pr__nfet_01v8 ad=0p pd=0u as=0p ps=0u w=0u l=0u
X70 a_4891_989.t0 a_4569_1050.t9 VDD.t11 ;p} sky130_fd_pr__pfet_01v8 ad=0p pd=0u as=0p ps=0u w=2u l=0.15u
X71 GND a_9183_989.t8 a_10324_101.t0 GND sky130_fd_pr__nfet_01v8 ad=0p pd=0u as=0p ps=0u w=0u l=0u
X72 a_7595_411.t0 a_4439_187.t10 VDD.t3  <p} sky130_fd_pr__pfet_01v8 ad=0p pd=0u as=0p ps=0u w=2u l=0.15u
X73 a_277_1050.t3 a_599_989.t9 VDD.t57 ;p} sky130_fd_pr__pfet_01v8 ad=0p pd=0u as=0p ps=0u w=2u l=0.15u
X74 a_599_989.t3 a_277_1050.t11 VDD.t68  <p} sky130_fd_pr__pfet_01v8 ad=0p pd=0u as=0p ps=0u w=2u l=0.15u
X75 a_8861_1050.t6 a_8731_187.t11 VDD.t140 ;p} sky130_fd_pr__pfet_01v8 ad=0p pd=0u as=0p ps=0u w=2u l=0.15u
X76 QN.t3 a_3303_411.t12 a_13757_1051.t2  <p} sky130_fd_pr__pfet_01v8 ad=0p pd=0u as=0p ps=0u w=2u l=0.15u
X77 VDD.t134 CLK.t12 a_8731_187.t4 ;p} sky130_fd_pr__pfet_01v8 ad=0p pd=0u as=0p ps=0u w=2u l=0.15u
X78 a_10429_1050.t0 a_9183_989.t7 VDD.t99  <p} sky130_fd_pr__pfet_01v8 ad=0p pd=0u as=0p ps=0u w=2u l=0.15u
X79 a_7469_1050.t3 a_4569_1050.t10 VDD.t75 ;p} sky130_fd_pr__pfet_01v8 ad=0p pd=0u as=0p ps=0u w=2u l=0.15u
X80 a_147_187.t0 a_1845_1050.t7 VDD.t66  <p} sky130_fd_pr__pfet_01v8 ad=0p pd=0u as=0p ps=0u w=2u l=0.15u
X81 VDD.t55 a_3303_411.t13 a_3177_1050.t2 ;p} sky130_fd_pr__pfet_01v8 ad=0p pd=0u as=0p ps=0u w=2u l=0.15u
X82 VDD.t138 a_8731_187.t12 a_11887_411.t3  <p} sky130_fd_pr__pfet_01v8 ad=0p pd=0u as=0p ps=0u w=2u l=0.15u
X83 VDD.t112 CLK.t14 a_8861_1050.t3 ;p} sky130_fd_pr__pfet_01v8 ad=0p pd=0u as=0p ps=0u w=2u l=0.15u
X84 GND a_277_1050.t12 a_1074_101.t0 GND sky130_fd_pr__nfet_01v8 ad=0p pd=0u as=0p ps=0u w=0u l=0u
X85 a_4569_1050.t5 a_4439_187.t11 VDD.t42  <p} sky130_fd_pr__pfet_01v8 ad=0p pd=0u as=0p ps=0u w=2u l=0.15u
X86 VDD.t90 a_4891_989.t9 a_6137_1050.t3 ;p} sky130_fd_pr__pfet_01v8 ad=0p pd=0u as=0p ps=0u w=2u l=0.15u
X87 VDD.t32 a_8861_1050.t11 a_11761_1050.t1  <p} sky130_fd_pr__pfet_01v8 ad=0p pd=0u as=0p ps=0u w=2u l=0.15u
X88 VDD.t81 a_3177_1050.t7 a_3303_411.t0 ;p} sky130_fd_pr__pfet_01v8 ad=0p pd=0u as=0p ps=0u w=2u l=0.15u
X89 a_13093_1051.t6 a_7595_411.t11 VDD.t171  <p} sky130_fd_pr__pfet_01v8 ad=0p pd=0u as=0p ps=0u w=2u l=0.15u
X90 a_599_989.t1 D.t7 VDD.t15 ;p} sky130_fd_pr__pfet_01v8 ad=0p pd=0u as=0p ps=0u w=2u l=0.15u
X91 VDD.t59 a_10429_1050.t7 a_8731_187.t0  <p} sky130_fd_pr__pfet_01v8 ad=0p pd=0u as=0p ps=0u w=2u l=0.15u
X92 QN.t6 a_7595_411.t12 a_13757_1051.t6 ;p} sky130_fd_pr__pfet_01v8 ad=0p pd=0u as=0p ps=0u w=2u l=0.15u
X93 a_10429_1050.t2 a_8731_187.t13 VDD.t136  <p} sky130_fd_pr__pfet_01v8 ad=0p pd=0u as=0p ps=0u w=2u l=0.15u
X94 GND a_11761_1050.t7 a_12322_101.t0 GND sky130_fd_pr__nfet_01v8 ad=0p pd=0u as=0p ps=0u w=0u l=0u
X95 a_7469_1050.t1 a_7595_411.t13 VDD.t19 ;p} sky130_fd_pr__pfet_01v8 ad=0p pd=0u as=0p ps=0u w=2u l=0.15u
X96 VDD.t104 a_9183_989.t10 a_8861_1050.t0 0<p} sky130_fd_pr__pfet_01v8 ad=0p pd=0u as=0p ps=0u w=2u l=0.15u
X97 a_4569_1050.t0 CLK.t16 VDD.t110  sky130_fd_pr__pfet_01v8 ad=0p pd=0u as=0p ps=0u w=2u l=0.15u
X98 VDD.t150 a_4439_187.t12 a_6137_1050.t4 0<p} sky130_fd_pr__pfet_01v8 ad=0p pd=0u as=0p ps=0u w=2u l=0.15u
X99 VDD.t30 a_8861_1050.t12 a_9183_989.t0  sky130_fd_pr__pfet_01v8 ad=0p pd=0u as=0p ps=0u w=2u l=0.15u
X100 a_1845_1050.t4 a_599_989.t10 VDD.t157 0<p} sky130_fd_pr__pfet_01v8 ad=0p pd=0u as=0p ps=0u w=2u l=0.15u
X101 a_8861_1050.t2 CLK.t17 VDD.t108  sky130_fd_pr__pfet_01v8 ad=0p pd=0u as=0p ps=0u w=2u l=0.15u
X102 GND a_6137_1050.t5 a_6698_101.t0 GND sky130_fd_pr__nfet_01v8 ad=0p pd=0u as=0p ps=0u w=0u l=0u
X103 a_13093_1051.t0 a_11887_411.t12 VDD.t85 0<p} sky130_fd_pr__pfet_01v8 ad=0p pd=0u as=0p ps=0u w=2u l=0.15u
X104 QN a_7595_411.t5 a_12988_101.t1 GND sky130_fd_pr__nfet_01v8 ad=0p pd=0u as=0p ps=0u w=0u l=0u
X105 GND a_277_1050.t8 a_3072_101.t0 GND sky130_fd_pr__nfet_01v8 ad=0p pd=0u as=0p ps=0u w=0u l=0u
X106 VDD.t62 a_147_187.t11 a_1845_1050.t1  sky130_fd_pr__pfet_01v8 ad=0p pd=0u as=0p ps=0u w=2u l=0.15u
X107 a_6137_1050.t2 a_4891_989.t10 VDD.t88 0<p} sky130_fd_pr__pfet_01v8 ad=0p pd=0u as=0p ps=0u w=2u l=0.15u
X108 VDD.t132 a_4569_1050.t12 a_4891_989.t4  sky130_fd_pr__pfet_01v8 ad=0p pd=0u as=0p ps=0u w=2u l=0.15u
X109 a_13093_1051.t2 a_11887_411.t13 a_13757_1051.t0 0<p} sky130_fd_pr__pfet_01v8 ad=0p pd=0u as=0p ps=0u w=2u l=0.15u
X110 VDD.t155 a_4439_187.t13 a_7595_411.t4  sky130_fd_pr__pfet_01v8 ad=0p pd=0u as=0p ps=0u w=2u l=0.15u
X111 GND a_4891_989.t5 a_6032_101.t0 GND sky130_fd_pr__nfet_01v8 ad=0p pd=0u as=0p ps=0u w=0u l=0u
X112 VDD.t49 a_147_187.t13 a_277_1050.t2 0<p} sky130_fd_pr__pfet_01v8 ad=0p pd=0u as=0p ps=0u w=2u l=0.15u
X113 VDD.t23 a_6137_1050.t7 a_4439_187.t0  sky130_fd_pr__pfet_01v8 ad=0p pd=0u as=0p ps=0u w=2u l=0.15u
C0 VDD CLK 7.71fF
C1 VDD D 0.97fF
C2 CLK D 0.45fF
C3 VDD QN 0.73fF
R0 a_8731_187.n7 a_8731_187.t5 512.525
R1 a_8731_187.n5 a_8731_187.t10 472.359
R2 a_8731_187.n3 a_8731_187.t12 472.359
R3 a_8731_187.n8 a_8731_187.t8 417.109
R4 a_8731_187.n5 a_8731_187.t13 384.527
R5 a_8731_187.n3 a_8731_187.t7 384.527
R6 a_8731_187.n7 a_8731_187.t11 371.139
R7 a_8731_187.n6 a_8731_187.t6 370.613
R8 a_8731_187.n4 a_8731_187.t9 370.613
R9 a_8731_187.n13 a_8731_187.n11 367.82
R10 a_8731_187.n8 a_8731_187.n7 179.837
R11 a_8731_187.n2 a_8731_187.n1 157.964
R12 a_8731_187.n6 a_8731_187.n5 127.096
R13 a_8731_187.n4 a_8731_187.n3 127.096
R14 a_8731_187.n11 a_8731_187.n2 104.282
R15 a_8731_187.n2 a_8731_187.n0 91.706
R16 a_8731_187.n13 a_8731_187.n12 15.218
R17 a_8731_187.n0 a_8731_187.t4 14.282
R18 a_8731_187.n0 a_8731_187.t3 14.282
R19 a_8731_187.n1 a_8731_187.t0 14.282
R20 a_8731_187.n1 a_8731_187.t1 14.282
R21 a_8731_187.n14 a_8731_187.n13 12.014
R22 a_8731_187.n9 a_8731_187.n8 11.134
R23 a_8731_187.n10 a_8731_187.n4 8.957
R24 a_8731_187.n9 a_8731_187.n6 4.65
R25 a_8731_187.n11 a_8731_187.n10 4.65
R26 a_8731_187.n10 a_8731_187.n9 2.947
R27 a_8861_1050.n7 a_8861_1050.t12 480.392
R28 a_8861_1050.n5 a_8861_1050.t11 480.392
R29 a_8861_1050.n7 a_8861_1050.t7 403.272
R30 a_8861_1050.n5 a_8861_1050.t9 403.272
R31 a_8861_1050.n8 a_8861_1050.t8 385.063
R32 a_8861_1050.n6 a_8861_1050.t10 385.063
R33 a_8861_1050.n12 a_8861_1050.n10 342.597
R34 a_8861_1050.n3 a_8861_1050.n2 161.352
R35 a_8861_1050.n10 a_8861_1050.n4 151.34
R36 a_8861_1050.n8 a_8861_1050.n7 143.429
R37 a_8861_1050.n6 a_8861_1050.n5 143.429
R38 a_8861_1050.n4 a_8861_1050.n0 95.095
R39 a_8861_1050.n3 a_8861_1050.n1 95.095
R40 a_8861_1050.n4 a_8861_1050.n3 66.258
R41 a_8861_1050.n12 a_8861_1050.n11 15.218
R42 a_8861_1050.n0 a_8861_1050.t0 14.282
R43 a_8861_1050.n0 a_8861_1050.t1 14.282
R44 a_8861_1050.n1 a_8861_1050.t3 14.282
R45 a_8861_1050.n1 a_8861_1050.t2 14.282
R46 a_8861_1050.n2 a_8861_1050.t5 14.282
R47 a_8861_1050.n2 a_8861_1050.t6 14.282
R48 a_8861_1050.n13 a_8861_1050.n12 12.014
R49 a_8861_1050.n9 a_8861_1050.n6 11.95
R50 a_8861_1050.n10 a_8861_1050.n9 5.965
R51 a_8861_1050.n9 a_8861_1050.n8 4.65
R52 VDD.n723 VDD.n712 144.705
R53 VDD.n780 VDD.n773 144.705
R54 VDD.n837 VDD.n830 144.705
R55 VDD.n894 VDD.n887 144.705
R56 VDD.n951 VDD.n944 144.705
R57 VDD.n1008 VDD.n1001 144.705
R58 VDD.n1083 VDD.n1076 144.705
R59 VDD.n1140 VDD.n1133 144.705
R60 VDD.n1197 VDD.n1190 144.705
R61 VDD.n602 VDD.n595 144.705
R62 VDD.n1254 VDD.n1247 144.705
R63 VDD.n545 VDD.n538 144.705
R64 VDD.n470 VDD.n463 144.705
R65 VDD.n413 VDD.n406 144.705
R66 VDD.n356 VDD.n349 144.705
R67 VDD.n299 VDD.n292 144.705
R68 VDD.n242 VDD.n235 144.705
R69 VDD.n185 VDD.n178 144.705
R70 VDD.n128 VDD.n121 144.705
R71 VDD.n75 VDD.n64 144.705
R72 VDD.n689 VDD.t44 143.754
R73 VDD.n1050 VDD.t92 143.754
R74 VDD.n479 VDD.t104 143.754
R75 VDD.n748 VDD.t159 143.754
R76 VDD.n805 VDD.t62 143.754
R77 VDD.n862 VDD.t126 143.754
R78 VDD.n919 VDD.t55 143.754
R79 VDD.n976 VDD.t83 143.754
R80 VDD.n1108 VDD.t13 143.754
R81 VDD.n1165 VDD.t150 143.754
R82 VDD.n1222 VDD.t124 143.754
R83 VDD.n605 VDD.t21 143.754
R84 VDD.n548 VDD.t155 143.754
R85 VDD.n416 VDD.t17 143.754
R86 VDD.n359 VDD.t142 143.754
R87 VDD.n302 VDD.t134 143.754
R88 VDD.n245 VDD.t97 143.754
R89 VDD.n188 VDD.t138 143.754
R90 VDD.n153 VDD.t85 135.539
R91 VDD.n131 VDD.t153 135.539
R92 VDD.n654 VDD.t7 135.17
R93 VDD.n726 VDD.t68 135.17
R94 VDD.n783 VDD.t157 135.17
R95 VDD.n840 VDD.t66 135.17
R96 VDD.n897 VDD.t165 135.17
R97 VDD.n954 VDD.t163 135.17
R98 VDD.n1015 VDD.t42 135.17
R99 VDD.n1086 VDD.t11 135.17
R100 VDD.n1143 VDD.t88 135.17
R101 VDD.n1200 VDD.t9 135.17
R102 VDD.n1257 VDD.t75 135.17
R103 VDD.n570 VDD.t130 135.17
R104 VDD.n509 VDD.t140 135.17
R105 VDD.n438 VDD.t36 135.17
R106 VDD.n381 VDD.t99 135.17
R107 VDD.n324 VDD.t71 135.17
R108 VDD.n267 VDD.t34 135.17
R109 VDD.n210 VDD.t101 135.17
R110 VDD.n141 VDD.n140 129.849
R111 VDD.n664 VDD.n663 129.472
R112 VDD.n680 VDD.n679 129.472
R113 VDD.n740 VDD.n739 129.472
R114 VDD.n797 VDD.n796 129.472
R115 VDD.n854 VDD.n853 129.472
R116 VDD.n911 VDD.n910 129.472
R117 VDD.n968 VDD.n967 129.472
R118 VDD.n1025 VDD.n1024 129.472
R119 VDD.n1041 VDD.n1040 129.472
R120 VDD.n1100 VDD.n1099 129.472
R121 VDD.n1157 VDD.n1156 129.472
R122 VDD.n1214 VDD.n1213 129.472
R123 VDD.n615 VDD.n614 129.472
R124 VDD.n558 VDD.n557 129.472
R125 VDD.n500 VDD.n499 129.472
R126 VDD.n488 VDD.n487 129.472
R127 VDD.n426 VDD.n425 129.472
R128 VDD.n369 VDD.n368 129.472
R129 VDD.n312 VDD.n311 129.472
R130 VDD.n255 VDD.n254 129.472
R131 VDD.n198 VDD.n197 129.472
R132 VDD.n60 VDD.n59 92.5
R133 VDD.n58 VDD.n57 92.5
R134 VDD.n56 VDD.n55 92.5
R135 VDD.n54 VDD.n53 92.5
R136 VDD.n62 VDD.n61 92.5
R137 VDD.n117 VDD.n116 92.5
R138 VDD.n115 VDD.n114 92.5
R139 VDD.n113 VDD.n112 92.5
R140 VDD.n111 VDD.n110 92.5
R141 VDD.n119 VDD.n118 92.5
R142 VDD.n174 VDD.n173 92.5
R143 VDD.n172 VDD.n171 92.5
R144 VDD.n170 VDD.n169 92.5
R145 VDD.n168 VDD.n167 92.5
R146 VDD.n176 VDD.n175 92.5
R147 VDD.n231 VDD.n230 92.5
R148 VDD.n229 VDD.n228 92.5
R149 VDD.n227 VDD.n226 92.5
R150 VDD.n225 VDD.n224 92.5
R151 VDD.n233 VDD.n232 92.5
R152 VDD.n288 VDD.n287 92.5
R153 VDD.n286 VDD.n285 92.5
R154 VDD.n284 VDD.n283 92.5
R155 VDD.n282 VDD.n281 92.5
R156 VDD.n290 VDD.n289 92.5
R157 VDD.n345 VDD.n344 92.5
R158 VDD.n343 VDD.n342 92.5
R159 VDD.n341 VDD.n340 92.5
R160 VDD.n339 VDD.n338 92.5
R161 VDD.n347 VDD.n346 92.5
R162 VDD.n402 VDD.n401 92.5
R163 VDD.n400 VDD.n399 92.5
R164 VDD.n398 VDD.n397 92.5
R165 VDD.n396 VDD.n395 92.5
R166 VDD.n404 VDD.n403 92.5
R167 VDD.n459 VDD.n458 92.5
R168 VDD.n457 VDD.n456 92.5
R169 VDD.n455 VDD.n454 92.5
R170 VDD.n453 VDD.n452 92.5
R171 VDD.n461 VDD.n460 92.5
R172 VDD.n534 VDD.n533 92.5
R173 VDD.n532 VDD.n531 92.5
R174 VDD.n530 VDD.n529 92.5
R175 VDD.n528 VDD.n527 92.5
R176 VDD.n536 VDD.n535 92.5
R177 VDD.n591 VDD.n590 92.5
R178 VDD.n589 VDD.n588 92.5
R179 VDD.n587 VDD.n586 92.5
R180 VDD.n585 VDD.n584 92.5
R181 VDD.n593 VDD.n592 92.5
R182 VDD.n1243 VDD.n1242 92.5
R183 VDD.n1241 VDD.n1240 92.5
R184 VDD.n1239 VDD.n1238 92.5
R185 VDD.n1237 VDD.n1236 92.5
R186 VDD.n1245 VDD.n1244 92.5
R187 VDD.n1186 VDD.n1185 92.5
R188 VDD.n1184 VDD.n1183 92.5
R189 VDD.n1182 VDD.n1181 92.5
R190 VDD.n1180 VDD.n1179 92.5
R191 VDD.n1188 VDD.n1187 92.5
R192 VDD.n1129 VDD.n1128 92.5
R193 VDD.n1127 VDD.n1126 92.5
R194 VDD.n1125 VDD.n1124 92.5
R195 VDD.n1123 VDD.n1122 92.5
R196 VDD.n1131 VDD.n1130 92.5
R197 VDD.n1072 VDD.n1071 92.5
R198 VDD.n1070 VDD.n1069 92.5
R199 VDD.n1068 VDD.n1067 92.5
R200 VDD.n1066 VDD.n1065 92.5
R201 VDD.n1074 VDD.n1073 92.5
R202 VDD.n997 VDD.n996 92.5
R203 VDD.n995 VDD.n994 92.5
R204 VDD.n993 VDD.n992 92.5
R205 VDD.n991 VDD.n990 92.5
R206 VDD.n999 VDD.n998 92.5
R207 VDD.n940 VDD.n939 92.5
R208 VDD.n938 VDD.n937 92.5
R209 VDD.n936 VDD.n935 92.5
R210 VDD.n934 VDD.n933 92.5
R211 VDD.n942 VDD.n941 92.5
R212 VDD.n883 VDD.n882 92.5
R213 VDD.n881 VDD.n880 92.5
R214 VDD.n879 VDD.n878 92.5
R215 VDD.n877 VDD.n876 92.5
R216 VDD.n885 VDD.n884 92.5
R217 VDD.n826 VDD.n825 92.5
R218 VDD.n824 VDD.n823 92.5
R219 VDD.n822 VDD.n821 92.5
R220 VDD.n820 VDD.n819 92.5
R221 VDD.n828 VDD.n827 92.5
R222 VDD.n769 VDD.n768 92.5
R223 VDD.n767 VDD.n766 92.5
R224 VDD.n765 VDD.n764 92.5
R225 VDD.n763 VDD.n762 92.5
R226 VDD.n771 VDD.n770 92.5
R227 VDD.n708 VDD.n707 92.5
R228 VDD.n706 VDD.n705 92.5
R229 VDD.n704 VDD.n703 92.5
R230 VDD.n702 VDD.n701 92.5
R231 VDD.n710 VDD.n709 92.5
R232 VDD.n638 VDD.n637 92.5
R233 VDD.n636 VDD.n635 92.5
R234 VDD.n634 VDD.n633 92.5
R235 VDD.n632 VDD.n631 92.5
R236 VDD.n640 VDD.n639 92.5
R237 VDD.n14 VDD.n1 92.5
R238 VDD.n5 VDD.n4 92.5
R239 VDD.n7 VDD.n6 92.5
R240 VDD.n9 VDD.n8 92.5
R241 VDD.n11 VDD.n10 92.5
R242 VDD.n13 VDD.n12 92.5
R243 VDD.n21 VDD.n20 92.059
R244 VDD.n74 VDD.n73 92.059
R245 VDD.n127 VDD.n126 92.059
R246 VDD.n184 VDD.n183 92.059
R247 VDD.n241 VDD.n240 92.059
R248 VDD.n298 VDD.n297 92.059
R249 VDD.n355 VDD.n354 92.059
R250 VDD.n412 VDD.n411 92.059
R251 VDD.n469 VDD.n468 92.059
R252 VDD.n544 VDD.n543 92.059
R253 VDD.n601 VDD.n600 92.059
R254 VDD.n1253 VDD.n1252 92.059
R255 VDD.n1196 VDD.n1195 92.059
R256 VDD.n1139 VDD.n1138 92.059
R257 VDD.n1082 VDD.n1081 92.059
R258 VDD.n1007 VDD.n1006 92.059
R259 VDD.n950 VDD.n949 92.059
R260 VDD.n893 VDD.n892 92.059
R261 VDD.n836 VDD.n835 92.059
R262 VDD.n779 VDD.n778 92.059
R263 VDD.n722 VDD.n721 92.059
R264 VDD.n646 VDD.n645 92.059
R265 VDD.n20 VDD.n16 67.194
R266 VDD.n20 VDD.n17 67.194
R267 VDD.n20 VDD.n18 67.194
R268 VDD.n20 VDD.n19 67.194
R269 VDD.n630 VDD.n629 44.141
R270 VDD.n761 VDD.n760 44.141
R271 VDD.n818 VDD.n817 44.141
R272 VDD.n875 VDD.n874 44.141
R273 VDD.n932 VDD.n931 44.141
R274 VDD.n989 VDD.n988 44.141
R275 VDD.n1064 VDD.n1063 44.141
R276 VDD.n1121 VDD.n1120 44.141
R277 VDD.n1178 VDD.n1177 44.141
R278 VDD.n1235 VDD.n1234 44.141
R279 VDD.n583 VDD.n582 44.141
R280 VDD.n526 VDD.n525 44.141
R281 VDD.n451 VDD.n450 44.141
R282 VDD.n394 VDD.n393 44.141
R283 VDD.n337 VDD.n336 44.141
R284 VDD.n280 VDD.n279 44.141
R285 VDD.n223 VDD.n222 44.141
R286 VDD.n166 VDD.n165 44.141
R287 VDD.n109 VDD.n108 44.141
R288 VDD.n5 VDD.n3 44.141
R289 VDD.n760 VDD.n758 44.107
R290 VDD.n817 VDD.n815 44.107
R291 VDD.n874 VDD.n872 44.107
R292 VDD.n931 VDD.n929 44.107
R293 VDD.n988 VDD.n986 44.107
R294 VDD.n1063 VDD.n1061 44.107
R295 VDD.n1120 VDD.n1118 44.107
R296 VDD.n1177 VDD.n1175 44.107
R297 VDD.n1234 VDD.n1232 44.107
R298 VDD.n582 VDD.n580 44.107
R299 VDD.n525 VDD.n523 44.107
R300 VDD.n450 VDD.n448 44.107
R301 VDD.n393 VDD.n391 44.107
R302 VDD.n336 VDD.n334 44.107
R303 VDD.n279 VDD.n277 44.107
R304 VDD.n222 VDD.n220 44.107
R305 VDD.n165 VDD.n163 44.107
R306 VDD.n108 VDD.n106 44.107
R307 VDD.n629 VDD.n627 44.107
R308 VDD.n3 VDD.n2 44.107
R309 VDD.n20 VDD.n15 41.052
R310 VDD.n68 VDD.n66 39.742
R311 VDD.n68 VDD.n67 39.742
R312 VDD.n70 VDD.n69 39.742
R313 VDD.n123 VDD.n122 39.742
R314 VDD.n180 VDD.n179 39.742
R315 VDD.n237 VDD.n236 39.742
R316 VDD.n294 VDD.n293 39.742
R317 VDD.n351 VDD.n350 39.742
R318 VDD.n408 VDD.n407 39.742
R319 VDD.n465 VDD.n464 39.742
R320 VDD.n540 VDD.n539 39.742
R321 VDD.n597 VDD.n596 39.742
R322 VDD.n1249 VDD.n1248 39.742
R323 VDD.n1192 VDD.n1191 39.742
R324 VDD.n1135 VDD.n1134 39.742
R325 VDD.n1078 VDD.n1077 39.742
R326 VDD.n1003 VDD.n1002 39.742
R327 VDD.n946 VDD.n945 39.742
R328 VDD.n889 VDD.n888 39.742
R329 VDD.n832 VDD.n831 39.742
R330 VDD.n775 VDD.n774 39.742
R331 VDD.n642 VDD.n641 39.742
R332 VDD.n720 VDD.n717 39.742
R333 VDD.n720 VDD.n719 39.742
R334 VDD.n716 VDD.n715 39.742
R335 VDD.n108 VDD.n107 38
R336 VDD.n165 VDD.n164 38
R337 VDD.n222 VDD.n221 38
R338 VDD.n279 VDD.n278 38
R339 VDD.n336 VDD.n335 38
R340 VDD.n393 VDD.n392 38
R341 VDD.n450 VDD.n449 38
R342 VDD.n525 VDD.n524 38
R343 VDD.n582 VDD.n581 38
R344 VDD.n1234 VDD.n1233 38
R345 VDD.n1177 VDD.n1176 38
R346 VDD.n1120 VDD.n1119 38
R347 VDD.n1063 VDD.n1062 38
R348 VDD.n988 VDD.n987 38
R349 VDD.n931 VDD.n930 38
R350 VDD.n874 VDD.n873 38
R351 VDD.n817 VDD.n816 38
R352 VDD.n760 VDD.n759 38
R353 VDD.n629 VDD.n628 38
R354 VDD.n758 VDD.n757 36.774
R355 VDD.n815 VDD.n814 36.774
R356 VDD.n872 VDD.n871 36.774
R357 VDD.n929 VDD.n928 36.774
R358 VDD.n986 VDD.n985 36.774
R359 VDD.n1061 VDD.n1060 36.774
R360 VDD.n1118 VDD.n1117 36.774
R361 VDD.n1175 VDD.n1174 36.774
R362 VDD.n1232 VDD.n1231 36.774
R363 VDD.n580 VDD.n579 36.774
R364 VDD.n523 VDD.n522 36.774
R365 VDD.n448 VDD.n447 36.774
R366 VDD.n391 VDD.n390 36.774
R367 VDD.n334 VDD.n333 36.774
R368 VDD.n277 VDD.n276 36.774
R369 VDD.n220 VDD.n219 36.774
R370 VDD.n163 VDD.n162 36.774
R371 VDD.n106 VDD.n105 36.774
R372 VDD.n66 VDD.n65 36.774
R373 VDD.n719 VDD.n718 36.774
R374 VDD.n481 0<p} 35.8
R375 VDD.n1044 ;p} 35.8
R376 VDD.n683  <p} 35.8
R377 VDD.n505  gIwU 33.243
R378 VDD.n1020  <p} 33.243
R379 VDD.n659 ;p} 33.243
R380 VDD.n1 VDD.n0 30.923
R381 VDD.n73 VDD.n71 26.38
R382 VDD.n73 VDD.n70 26.38
R383 VDD.n73 VDD.n68 26.38
R384 VDD.n73 VDD.n72 26.38
R385 VDD.n126 VDD.n124 26.38
R386 VDD.n126 VDD.n123 26.38
R387 VDD.n126 VDD.n125 26.38
R388 VDD.n183 VDD.n181 26.38
R389 VDD.n183 VDD.n180 26.38
R390 VDD.n183 VDD.n182 26.38
R391 VDD.n240 VDD.n238 26.38
R392 VDD.n240 VDD.n237 26.38
R393 VDD.n240 VDD.n239 26.38
R394 VDD.n297 VDD.n295 26.38
R395 VDD.n297 VDD.n294 26.38
R396 VDD.n297 VDD.n296 26.38
R397 VDD.n354 VDD.n352 26.38
R398 VDD.n354 VDD.n351 26.38
R399 VDD.n354 VDD.n353 26.38
R400 VDD.n411 VDD.n409 26.38
R401 VDD.n411 VDD.n408 26.38
R402 VDD.n411 VDD.n410 26.38
R403 VDD.n468 VDD.n466 26.38
R404 VDD.n468 VDD.n465 26.38
R405 VDD.n468 VDD.n467 26.38
R406 VDD.n543 VDD.n541 26.38
R407 VDD.n543 VDD.n540 26.38
R408 VDD.n543 VDD.n542 26.38
R409 VDD.n600 VDD.n598 26.38
R410 VDD.n600 VDD.n597 26.38
R411 VDD.n600 VDD.n599 26.38
R412 VDD.n1252 VDD.n1250 26.38
R413 VDD.n1252 VDD.n1249 26.38
R414 VDD.n1252 VDD.n1251 26.38
R415 VDD.n1195 VDD.n1193 26.38
R416 VDD.n1195 VDD.n1192 26.38
R417 VDD.n1195 VDD.n1194 26.38
R418 VDD.n1138 VDD.n1136 26.38
R419 VDD.n1138 VDD.n1135 26.38
R420 VDD.n1138 VDD.n1137 26.38
R421 VDD.n1081 VDD.n1079 26.38
R422 VDD.n1081 VDD.n1078 26.38
R423 VDD.n1081 VDD.n1080 26.38
R424 VDD.n1006 VDD.n1004 26.38
R425 VDD.n1006 VDD.n1003 26.38
R426 VDD.n1006 VDD.n1005 26.38
R427 VDD.n949 VDD.n947 26.38
R428 VDD.n949 VDD.n946 26.38
R429 VDD.n949 VDD.n948 26.38
R430 VDD.n892 VDD.n890 26.38
R431 VDD.n892 VDD.n889 26.38
R432 VDD.n892 VDD.n891 26.38
R433 VDD.n835 VDD.n833 26.38
R434 VDD.n835 VDD.n832 26.38
R435 VDD.n835 VDD.n834 26.38
R436 VDD.n778 VDD.n776 26.38
R437 VDD.n778 VDD.n775 26.38
R438 VDD.n778 VDD.n777 26.38
R439 VDD.n645 VDD.n643 26.38
R440 VDD.n645 VDD.n642 26.38
R441 VDD.n645 VDD.n644 26.38
R442 VDD.n721 VDD.n720 26.38
R443 VDD.n721 VDD.n716 26.38
R444 VDD.n721 VDD.n714 26.38
R445 VDD.n721 VDD.n713 26.38
R446 VDD.n648 VDD.n640 22.915
R447 VDD.n23 VDD.n14 22.915
R448 VDD.n28  <p} 20.457
R449 VDD.n93  <p} 20.457
R450 VDD.n136  <p} 20.457
R451 VDD.n193  <p} 20.457
R452 VDD.n250  <p} 20.457
R453 VDD.n307 ;p} 20.457
R454 VDD.n364  <p} 20.457
R455 VDD.n421  <p} 20.457
R456 VDD.n553  20.457
R457 VDD.n610 ;p} 20.457
R458 VDD.n1218 ;p} 20.457
R459 VDD.n1161 0<p} 20.457
R460 VDD.n1104 –¬ÂIwU 20.457
R461 VDD.n972  <p} 20.457
R462 VDD.n915 ;p} 20.457
R463 VDD.n858  <p} 20.457
R464 VDD.n801  20.457
R465 VDD.n744 ;p} 20.457
R466 VDD.n39  <p} 17.9
R467 VDD.n82 ;p} 17.9
R468 VDD.n149 0<p} 17.9
R469 VDD.n206 VDD.t100 17.9
R470 VDD.n263  <p} 17.9
R471 VDD.n320  <p} 17.9
R472 VDD.n377  <p} 17.9
R473 VDD.n434  <p} 17.9
R474 VDD.n566 ;p} 17.9
R475 VDD.n623 ;p} 17.9
R476 VDD.n1205  <p} 17.9
R477 VDD.n1148 0<p} 17.9
R478 VDD.n1091 ;p} 17.9
R479 VDD.n959 ;p} 17.9
R480 VDD.n902 êBvIwU 17.9
R481 VDD.n845  <p} 17.9
R482 VDD.n788 0<p} 17.9
R483 VDD.n731  <p} 17.9
R484 VDD.n485 0º\IwU 15.343
R485 VDD.n1038 ;p} 15.343
R486 VDD.n677 ;p} 15.343
R487 VDD.n640 VDD.n638 14.864
R488 VDD.n638 VDD.n636 14.864
R489 VDD.n636 VDD.n634 14.864
R490 VDD.n634 VDD.n632 14.864
R491 VDD.n632 VDD.n630 14.864
R492 VDD.n771 VDD.n769 14.864
R493 VDD.n769 VDD.n767 14.864
R494 VDD.n767 VDD.n765 14.864
R495 VDD.n765 VDD.n763 14.864
R496 VDD.n763 VDD.n761 14.864
R497 VDD.n828 VDD.n826 14.864
R498 VDD.n826 VDD.n824 14.864
R499 VDD.n824 VDD.n822 14.864
R500 VDD.n822 VDD.n820 14.864
R501 VDD.n820 VDD.n818 14.864
R502 VDD.n885 VDD.n883 14.864
R503 VDD.n883 VDD.n881 14.864
R504 VDD.n881 VDD.n879 14.864
R505 VDD.n879 VDD.n877 14.864
R506 VDD.n877 VDD.n875 14.864
R507 VDD.n942 VDD.n940 14.864
R508 VDD.n940 VDD.n938 14.864
R509 VDD.n938 VDD.n936 14.864
R510 VDD.n936 VDD.n934 14.864
R511 VDD.n934 VDD.n932 14.864
R512 VDD.n999 VDD.n997 14.864
R513 VDD.n997 VDD.n995 14.864
R514 VDD.n995 VDD.n993 14.864
R515 VDD.n993 VDD.n991 14.864
R516 VDD.n991 VDD.n989 14.864
R517 VDD.n1074 VDD.n1072 14.864
R518 VDD.n1072 VDD.n1070 14.864
R519 VDD.n1070 VDD.n1068 14.864
R520 VDD.n1068 VDD.n1066 14.864
R521 VDD.n1066 VDD.n1064 14.864
R522 VDD.n1131 VDD.n1129 14.864
R523 VDD.n1129 VDD.n1127 14.864
R524 VDD.n1127 VDD.n1125 14.864
R525 VDD.n1125 VDD.n1123 14.864
R526 VDD.n1123 VDD.n1121 14.864
R527 VDD.n1188 VDD.n1186 14.864
R528 VDD.n1186 VDD.n1184 14.864
R529 VDD.n1184 VDD.n1182 14.864
R530 VDD.n1182 VDD.n1180 14.864
R531 VDD.n1180 VDD.n1178 14.864
R532 VDD.n1245 VDD.n1243 14.864
R533 VDD.n1243 VDD.n1241 14.864
R534 VDD.n1241 VDD.n1239 14.864
R535 VDD.n1239 VDD.n1237 14.864
R536 VDD.n1237 VDD.n1235 14.864
R537 VDD.n593 VDD.n591 14.864
R538 VDD.n591 VDD.n589 14.864
R539 VDD.n589 VDD.n587 14.864
R540 VDD.n587 VDD.n585 14.864
R541 VDD.n585 VDD.n583 14.864
R542 VDD.n536 VDD.n534 14.864
R543 VDD.n534 VDD.n532 14.864
R544 VDD.n532 VDD.n530 14.864
R545 VDD.n530 VDD.n528 14.864
R546 VDD.n528 VDD.n526 14.864
R547 VDD.n461 VDD.n459 14.864
R548 VDD.n459 VDD.n457 14.864
R549 VDD.n457 VDD.n455 14.864
R550 VDD.n455 VDD.n453 14.864
R551 VDD.n453 VDD.n451 14.864
R552 VDD.n404 VDD.n402 14.864
R553 VDD.n402 VDD.n400 14.864
R554 VDD.n400 VDD.n398 14.864
R555 VDD.n398 VDD.n396 14.864
R556 VDD.n396 VDD.n394 14.864
R557 VDD.n347 VDD.n345 14.864
R558 VDD.n345 VDD.n343 14.864
R559 VDD.n343 VDD.n341 14.864
R560 VDD.n341 VDD.n339 14.864
R561 VDD.n339 VDD.n337 14.864
R562 VDD.n290 VDD.n288 14.864
R563 VDD.n288 VDD.n286 14.864
R564 VDD.n286 VDD.n284 14.864
R565 VDD.n284 VDD.n282 14.864
R566 VDD.n282 VDD.n280 14.864
R567 VDD.n233 VDD.n231 14.864
R568 VDD.n231 VDD.n229 14.864
R569 VDD.n229 VDD.n227 14.864
R570 VDD.n227 VDD.n225 14.864
R571 VDD.n225 VDD.n223 14.864
R572 VDD.n176 VDD.n174 14.864
R573 VDD.n174 VDD.n172 14.864
R574 VDD.n172 VDD.n170 14.864
R575 VDD.n170 VDD.n168 14.864
R576 VDD.n168 VDD.n166 14.864
R577 VDD.n119 VDD.n117 14.864
R578 VDD.n117 VDD.n115 14.864
R579 VDD.n115 VDD.n113 14.864
R580 VDD.n113 VDD.n111 14.864
R581 VDD.n111 VDD.n109 14.864
R582 VDD.n62 VDD.n60 14.864
R583 VDD.n60 VDD.n58 14.864
R584 VDD.n58 VDD.n56 14.864
R585 VDD.n56 VDD.n54 14.864