* SPICE3 file created from TMRDFFSNRNQX1.ext - technology: sky130A

.subckt TMRDFFSNRNQX1 Q D CLK SN RN VDD GND
X0 GND a_6049_1050.t8 a_6825_103.t0 GND sky130_fd_pr__nfet_01v8 ad=4.9019p pd=4.107u as=0p ps=0u w=0u l=0u
X1 VDD.t176 RN.t1 a_15669_1050.t3 ¿ì{ù9V sky130_fd_pr__pfet_01v8 ad=0p pd=0u as=0p ps=0u w=2u l=0.15u
X2 GND a_4125_1050.t7 a_4901_103.t0 GND sky130_fd_pr__nfet_01v8 ad=0p pd=0u as=0p ps=0u w=0u l=0u
X3 a_599_989.t6 CLK.t0 VDD.t69 †Çhû9V sky130_fd_pr__pfet_01v8 ad=0p pd=0u as=0p ps=0u w=2u l=0.15u
X4 VDD.t174 RN.t2 a_9897_1050.t4  sky130_fd_pr__pfet_01v8 ad=0p pd=0u as=0p ps=0u w=2u l=0.15u
X5 VDD.t46 CLK.t1 a_1561_989.t6 VDD.t45 sky130_fd_pr__pfet_01v8 ad=0p pd=0u as=0p ps=0u w=2u l=0.15u
X6 a_11821_1050.t4 a_12143_989.t7 VDD.t102 +ùÿ• sky130_fd_pr__pfet_01v8 ad=0p pd=0u as=0p ps=0u w=2u l=0.15u
X7 VDD.t235 a_13105_989.t7 a_13745_1050.t6 ∞Ö—û9V sky130_fd_pr__pfet_01v8 ad=0p pd=0u as=0p ps=0u w=2u l=0.15u
X8 VDD.t188 a_277_1050.t7 a_2201_1050.t3  sky130_fd_pr__pfet_01v8 ad=0p pd=0u as=0p ps=0u w=2u l=0.15u
X9 a_7333_989.t6 CLK.t2 VDD.t67 VDD.t66 sky130_fd_pr__pfet_01v8 ad=0p pd=0u as=0p ps=0u w=2u l=0.15u
X10 a_10219_989.t1 SN.t0 VDD.t93 +ùÿ• sky130_fd_pr__pfet_01v8 ad=0p pd=0u as=0p ps=0u w=2u l=0.15u
X11 VDD.t104 a_7333_989.t7 a_6371_989.t3 ∞W»û9V sky130_fd_pr__pfet_01v8 ad=0p pd=0u as=0p ps=0u w=2u l=0.15u
X12 VDD.t24 CLK.t3 a_12143_989.t3  sky130_fd_pr__pfet_01v8 ad=0p pd=0u as=0p ps=0u w=2u l=0.15u
X13 GND a_4447_989.t8 a_18760_101.t0 GND sky130_fd_pr__nfet_01v8 ad=0p pd=0u as=0p ps=0u w=0u l=0u
X14 GND a_15991_989.t9 a_18094_101.t0 GND sky130_fd_pr__nfet_01v8 ad=0p pd=0u as=0p ps=0u w=0u l=0u
X15 a_13105_989.t3 RN.t4 VDD.t172 VDD.t171 sky130_fd_pr__pfet_01v8 ad=0p pd=0u as=0p ps=0u w=2u l=0.15u
X16 GND D.t0 a_11635_103.t0 GND sky130_fd_pr__nfet_01v8 ad=0p pd=0u as=0p ps=0u w=0u l=0u
X17 VDD.t170 RN.t5 a_277_1050.t6 +ùÿ• sky130_fd_pr__pfet_01v8 ad=0p pd=0u as=0p ps=0u w=2u l=0.15u
X18 a_6371_989.t4 a_6049_1050.t7 VDD.t221 –}ﬂù9V sky130_fd_pr__pfet_01v8 ad=0p pd=0u as=0p ps=0u w=2u l=0.15u
X19 GND a_6049_1050.t9 a_7787_103.t0 GND sky130_fd_pr__nfet_01v8 ad=0p pd=0u as=0p ps=0u w=0u l=0u
X20 VDD.t128 a_7973_1050.t7 a_7333_989.t1 –€Àû9V sky130_fd_pr__pfet_01v8 ad=0p pd=0u as=0p ps=0u w=2u l=0.15u
X21 VDD.t215 a_9897_1050.t7 a_10219_989.t6 `‚iû9V sky130_fd_pr__pfet_01v8 ad=0p pd=0u as=0p ps=0u w=2u l=0.15u
X22 a_17533_1051.t5 a_15991_989.t8 VDD.t44 ¿ehû9V sky130_fd_pr__pfet_01v8 ad=0p pd=0u as=0p ps=0u w=2u l=0.15u
X23 a_12143_989.t2 CLK.t7 VDD.t65  sky130_fd_pr__pfet_01v8 ad=0p pd=0u as=0p ps=0u w=2u l=0.15u
X24 GND a_6371_989.t9 a_9711_103.t0 GND sky130_fd_pr__nfet_01v8 ad=0p pd=0u as=0p ps=0u w=0u l=0u
X25 a_599_989.t3 a_1561_989.t7 VDD.t73 VDD.t72 sky130_fd_pr__pfet_01v8 ad=0p pd=0u as=0p ps=0u w=2u l=0.15u
X26 a_15991_989.t3 a_15669_1050.t7 VDD.t140 +ùÿ• sky130_fd_pr__pfet_01v8 ad=0p pd=0u as=0p ps=0u w=2u l=0.15u
X27 GND D.t1 a_5863_103.t0 GND sky130_fd_pr__nfet_01v8 ad=0p pd=0u as=0p ps=0u w=0u l=0u
X28 VDD.t168 RN.t6 a_1561_989.t4 Pîû9V sky130_fd_pr__pfet_01v8 ad=0p pd=0u as=0p ps=0u w=2u l=0.15u
X29 a_9897_1050.t2 a_6371_989.t7 VDD.t79 PØû9V sky130_fd_pr__pfet_01v8 ad=0p pd=0u as=0p ps=0u w=2u l=0.15u
X30 a_4125_1050.t3 a_599_989.t8 VDD.t48 ‡Ûbû9V sky130_fd_pr__pfet_01v8 ad=0p pd=0u as=0p ps=0u w=2u l=0.15u
X31 VDD.t108 SN.t2 a_2201_1050.t1 @{ù9V sky130_fd_pr__pfet_01v8 ad=0p pd=0u as=0p ps=0u w=2u l=0.15u
X32 a_4125_1050.t1 a_4447_989.t7 VDD.t110 0˜«ù9V sky130_fd_pr__pfet_01v8 ad=0p pd=0u as=0p ps=0u w=2u l=0.15u
X33 VDD.t184 a_6371_989.t8 a_6049_1050.t4  sky130_fd_pr__pfet_01v8 ad=0p pd=0u as=0p ps=0u w=2u l=0.15u
X34 a_18197_1051.t5 a_15991_989.t10 a_17533_1051.t2 VDD.t94 sky130_fd_pr__pfet_01v8 ad=0p pd=0u as=0p ps=0u w=2u l=0.15u
X35 a_1561_989.t5 CLK.t8 VDD.t180 +ùÿ• sky130_fd_pr__pfet_01v8 ad=0p pd=0u as=0p ps=0u w=2u l=0.15u
X36 GND a_11821_1050.t8 a_12597_103.t0 GND sky130_fd_pr__nfet_01v8 ad=0p pd=0u as=0p ps=0u w=0u l=0u
X37 VDD.t199 a_599_989.t9 a_277_1050.t4 ‡çñù9V sky130_fd_pr__pfet_01v8 ad=0p pd=0u as=0p ps=0u w=2u l=0.15u
X38 a_13745_1050.t0 SN.t4 VDD.t1 êæxù9V sky130_fd_pr__pfet_01v8 ad=0p pd=0u as=0p ps=0u w=2u l=0.15u
X39 GND a_13745_1050.t8 a_14521_103.t0 GND sky130_fd_pr__nfet_01v8 ad=0p pd=0u as=0p ps=0u w=0u l=0u
X40 GND a_9897_1050.t8 a_10673_103.t0 GND sky130_fd_pr__nfet_01v8 ad=0p pd=0u as=0p ps=0u w=0u l=0u
X41 a_17533_1051.t7 a_10219_989.t7 VDD.t182 ∞+∞û9V sky130_fd_pr__pfet_01v8 ad=0p pd=0u as=0p ps=0u w=2u l=0.15u
X42 GND a_7973_1050.t9 a_8749_103.t0 GND sky130_fd_pr__nfet_01v8 ad=0p pd=0u as=0p ps=0u w=0u l=0u
X43 a_12143_989.t0 a_11821_1050.t7 VDD.t54 P–‘ù9V sky130_fd_pr__pfet_01v8 ad=0p pd=0u as=0p ps=0u w=2u l=0.15u
X44 VDD.t40 a_13745_1050.t7 a_13105_989.t0  sky130_fd_pr__pfet_01v8 ad=0p pd=0u as=0p ps=0u w=2u l=0.15u
X45 Q a_17708_209.t8 GND.t8 GND sky130_fd_pr__nfet_01v8 ad=1.791p pd=1.57u as=0p ps=0u w=0u l=0u
X46 a_15991_989.t1 SN.t5 VDD.t209  sky130_fd_pr__pfet_01v8 ad=0p pd=0u as=0p ps=0u w=2u l=0.15u
X47 a_15669_1050.t2 a_12143_989.t8 VDD.t75 VDD.t74 sky130_fd_pr__pfet_01v8 ad=0p pd=0u as=0p ps=0u w=2u l=0.15u
X48 GND D.t4 a_91_103.t0 GND sky130_fd_pr__nfet_01v8 ad=0p pd=0u as=0p ps=0u w=0u l=0u
X49 a_4125_1050.t5 RN.t8 VDD.t166 +ùÿ• sky130_fd_pr__pfet_01v8 ad=0p pd=0u as=0p ps=0u w=2u l=0.15u
X50 VDD.t11 a_17708_209.t7 Q.t1 ‡3hû9V sky130_fd_pr__pfet_01v8 ad=0p pd=0u as=0p ps=0u w=2u l=0.15u
X51 VDD.t194 a_1561_989.t8 a_2201_1050.t6 `bíù9V sky130_fd_pr__pfet_01v8 ad=0p pd=0u as=0p ps=0u w=2u l=0.15u
X52 VDD.t164 RN.t9 a_6049_1050.t6  w®û9V sky130_fd_pr__pfet_01v8 ad=0p pd=0u as=0p ps=0u w=2u l=0.15u
X53 a_7333_989.t0 a_7973_1050.t8 VDD.t112  ò…ù9V sky130_fd_pr__pfet_01v8 ad=0p pd=0u as=0p ps=0u w=2u l=0.15u
X54 a_7973_1050.t6 a_7333_989.t8 VDD.t38 †Mïù9V sky130_fd_pr__pfet_01v8 ad=0p pd=0u as=0p ps=0u w=2u l=0.15u
X55 a_9897_1050.t1 a_10219_989.t9 VDD.t42  sky130_fd_pr__pfet_01v8 ad=0p pd=0u as=0p ps=0u w=2u l=0.15u
X56 VDD.t233 a_13105_989.t10 a_15991_989.t6 VDD.t232 sky130_fd_pr__pfet_01v8 ad=0p pd=0u as=0p ps=0u w=2u l=0.15u
X57 a_1561_989.t1 a_2201_1050.t7 VDD.t30 +ùÿ• sky130_fd_pr__pfet_01v8 ad=0p pd=0u as=0p ps=0u w=2u l=0.15u
X58 a_18197_1051.t1 a_4447_989.t9 a_17533_1051.t1 êFû9V sky130_fd_pr__pfet_01v8 ad=0p pd=0u as=0p ps=0u w=2u l=0.15u
X59 VDD.t126 a_4125_1050.t8 a_4447_989.t1 `hû9V sky130_fd_pr__pfet_01v8 ad=0p pd=0u as=0p ps=0u w=2u l=0.15u
X60 GND a_15991_989.t12 a_17428_101.t0 GND sky130_fd_pr__nfet_01v8 ad=0p pd=0u as=0p ps=0u w=0u l=0u
X61 a_6371_989.t6 CLK.t10 VDD.t32  sky130_fd_pr__pfet_01v8 ad=0p pd=0u as=0p ps=0u w=2u l=0.15u
X62 VDD.t120 CLK.t11 a_7333_989.t5 0Îlù9V sky130_fd_pr__pfet_01v8 ad=0p pd=0u as=0p ps=0u w=2u l=0.15u
X63 a_6049_1050.t0 D.t2 VDD.t132 ∞ºû9V sky130_fd_pr__pfet_01v8 ad=0p pd=0u as=0p ps=0u w=2u l=0.15u
X64 GND a_11821_1050.t10 a_13559_103.t0 GND sky130_fd_pr__nfet_01v8 ad=0p pd=0u as=0p ps=0u w=0u l=0u
X65 a_17708_209.t4 a_10219_989.t10 a_18197_1051.t7  sky130_fd_pr__pfet_01v8 ad=0p pd=0u as=0p ps=0u w=2u l=0.15u
X66 GND a_12143_989.t9 a_15483_103.t0 GND sky130_fd_pr__nfet_01v8 ad=0p pd=0u as=0p ps=0u w=0u l=0u
X67 a_277_1050.t1 D.t3 VDD.t130 VDD.t129 sky130_fd_pr__pfet_01v8 ad=0p pd=0u as=0p ps=0u w=2u l=0.15u
X68 VDD.t96 CLK.t12 a_13105_989.t2 +ùÿ• sky130_fd_pr__pfet_01v8 ad=0p pd=0u as=0p ps=0u w=2u l=0.15u
X69 a_15991_989.t5 a_13105_989.t11 VDD.t231 ‡åëù9V sky130_fd_pr__pfet_01v8 ad=0p pd=0u as=0p ps=0u w=2u l=0.15u
X70 VDD.t203 a_11821_1050.t9 a_13745_1050.t3 ¿ãiû9V sky130_fd_pr__pfet_01v8 ad=0p pd=0u as=0p ps=0u w=2u l=0.15u
X71 a_10219_989.t4 a_7333_989.t9 VDD.t56 ∞û9V sky130_fd_pr__pfet_01v8 ad=0p pd=0u as=0p ps=0u w=2u l=0.15u
X72 VDD.t229 a_13105_989.t12 a_12143_989.t6 @¬ëù9V sky130_fd_pr__pfet_01v8 ad=0p pd=0u as=0p ps=0u w=2u l=0.15u
X73 a_15669_1050.t4 RN.t10 VDD.t162 ¿búù9V sky130_fd_pr__pfet_01v8 ad=0p pd=0u as=0p ps=0u w=2u l=0.15u
X74 VDD.t5 a_277_1050.t8 a_599_989.t0  sky130_fd_pr__pfet_01v8 ad=0p pd=0u as=0p ps=0u w=2u l=0.15u
X75 a_9897_1050.t3 RN.t11 VDD.t160 VDD.t159 sky130_fd_pr__pfet_01v8 ad=0p pd=0u as=0p ps=0u w=2u l=0.15u
X76 VDD.t158 RN.t13 a_11821_1050.t6 +ùÿ• sky130_fd_pr__pfet_01v8 ad=0p pd=0u as=0p ps=0u w=2u l=0.15u
X77 VDD.t16 a_1561_989.t9 a_599_989.t2 †≥ù9V sky130_fd_pr__pfet_01v8 ad=0p pd=0u as=0p ps=0u w=2u l=0.15u
X78 a_13745_1050.t5 a_13105_989.t13 VDD.t227 ∞ñû9V sky130_fd_pr__pfet_01v8 ad=0p pd=0u as=0p ps=0u w=2u l=0.15u
X79 VDD.t223 SN.t6 a_4447_989.t3  "ëù9V sky130_fd_pr__pfet_01v8 ad=0p pd=0u as=0p ps=0u w=2u l=0.15u
X80 a_18197_1051.t3 a_4447_989.t10 a_17708_209.t1 ¿‰õù9V sky130_fd_pr__pfet_01v8 ad=0p pd=0u as=0p ps=0u w=2u l=0.15u
X81 VDD.t211 a_15991_989.t11 a_15669_1050.t6 êûû9V sky130_fd_pr__pfet_01v8 ad=0p pd=0u as=0p ps=0u w=2u l=0.15u
X82 a_6371_989.t2 a_7333_989.t10 VDD.t50  sky130_fd_pr__pfet_01v8 ad=0p pd=0u as=0p ps=0u w=2u l=0.15u
X83 GND a_15669_1050.t8 a_16445_103.t0 GND sky130_fd_pr__nfet_01v8 ad=0p pd=0u as=0p ps=0u w=0u l=0u
X84 VDD.t156 RN.t15 a_7333_989.t4 VDD.t155 sky130_fd_pr__pfet_01v8 ad=0p pd=0u as=0p ps=0u w=2u l=0.15u
X85 VDD.t85 SN.t7 a_7973_1050.t3 +ùÿ• sky130_fd_pr__pfet_01v8 ad=0p pd=0u as=0p ps=0u w=2u l=0.15u
X86 a_277_1050.t5 RN.t16 VDD.t152 – û9V sky130_fd_pr__pfet_01v8 ad=0p pd=0u as=0p ps=0u w=2u l=0.15u
X87 a_11821_1050.t5 RN.t17 VDD.t154 ê Iû9V sky130_fd_pr__pfet_01v8 ad=0p pd=0u as=0p ps=0u w=2u l=0.15u
X88 VDD.t61 SN.t8 a_13745_1050.t1 Jû9V sky130_fd_pr__pfet_01v8 ad=0p pd=0u as=0p ps=0u w=2u l=0.15u
X89 a_10219_989.t5 a_9897_1050.t9 VDD.t34 ÿJû9V sky130_fd_pr__pfet_01v8 ad=0p pd=0u as=0p ps=0u w=2u l=0.15u
X90 VDD.t213 CLK.t14 a_599_989.t5 AKû9V sky130_fd_pr__pfet_01v8 ad=0p pd=0u as=0p ps=0u w=2u l=0.15u
X91 VDD.t36 a_12143_989.t10 a_11821_1050.t3  sky130_fd_pr__pfet_01v8 ad=0p pd=0u as=0p ps=0u w=2u l=0.15u
X92 a_1561_989.t3 RN.t18 VDD.t150 VDD.t149 sky130_fd_pr__pfet_01v8 ad=0p pd=0u as=0p ps=0u w=2u l=0.15u
X93 VDD.t22 a_1561_989.t10 a_4447_989.t6 +ùÿ• sky130_fd_pr__pfet_01v8 ad=0p pd=0u as=0p ps=0u w=2u l=0.15u
X94 a_2201_1050.t0 SN.t11 VDD.t26 –∑ù9V sky130_fd_pr__pfet_01v8 ad=0p pd=0u as=0p ps=0u w=2u l=0.15u
X95 GND a_277_1050.t11 a_2015_103.t0 GND sky130_fd_pr__nfet_01v8 ad=0p pd=0u as=0p ps=0u w=0u l=0u
X96 VDD.t148 RN.t19 a_4125_1050.t4 –Lû9V sky130_fd_pr__pfet_01v8 ad=0p pd=0u as=0p ps=0u w=2u l=0.15u
X97 a_12143_989.t5 a_13105_989.t14 VDD.t225 †Ìœù9V sky130_fd_pr__pfet_01v8 ad=0p pd=0u as=0p ps=0u w=2u l=0.15u
X98 a_599_989.t1 a_277_1050.t9 VDD.t7 †é—ù9V sky130_fd_pr__pfet_01v8 ad=0p pd=0u as=0p ps=0u w=2u l=0.15u
X99 VDD.t98 a_6049_1050.t10 a_7973_1050.t1 P[±ù9V sky130_fd_pr__pfet_01v8 ad=0p pd=0u as=0p ps=0u w=2u l=0.15u
X100 VDD.t146 RN.t21 a_13105_989.t4  sky130_fd_pr__pfet_01v8 ad=0p pd=0u as=0p ps=0u w=2u l=0.15u
X101 a_277_1050.t3 a_599_989.t11 VDD.t71 VDD.t70 sky130_fd_pr__pfet_01v8 ad=0p pd=0u as=0p ps=0u w=2u l=0.15u
X102 a_11821_1050.t1 D.t5 VDD.t134 +ùÿ• sky130_fd_pr__pfet_01v8 ad=0p pd=0u as=0p ps=0u w=2u l=0.15u
X103 a_13105_989.t6 a_13745_1050.t9 VDD.t207 @úù9V sky130_fd_pr__pfet_01v8 ad=0p pd=0u as=0p ps=0u w=2u l=0.15u
X104 VDD.t138 a_15669_1050.t9 a_15991_989.t2 ∞”¥ù9V sky130_fd_pr__pfet_01v8 ad=0p pd=0u as=0p ps=0u w=2u l=0.15u
X105 a_7973_1050.t0 a_6049_1050.t11 VDD.t118 @Qúù9V sky130_fd_pr__pfet_01v8 ad=0p pd=0u as=0p ps=0u w=2u l=0.15u
X106 VDD.t9 a_6371_989.t10 a_9897_1050.t0  sky130_fd_pr__pfet_01v8 ad=0p pd=0u as=0p ps=0u w=2u l=0.15u
X107 a_2201_1050.t2 a_277_1050.t10 VDD.t106 VDD.t105 sky130_fd_pr__pfet_01v8 ad=0p pd=0u as=0p ps=0u w=2u l=0.15u
X108 VDD.t205 a_7333_989.t11 a_10219_989.t3  sky130_fd_pr__pfet_01v8 ad=0p pd=0u as=0p ps=0u w=2u l=0.15u
X109 Q.t0 a_17708_209.t9 VDD.t28  sky130_fd_pr__pfet_01v8 ad=0p pd=0u as=0p ps=0u w=2u l=0.15u
X110 a_2201_1050.t5 a_1561_989.t12 VDD.t100  sky130_fd_pr__pfet_01v8 ad=0p pd=0u as=0p ps=0u w=2u l=0.15u
X111 VDD.t14 a_599_989.t12 a_4125_1050.t2  sky130_fd_pr__pfet_01v8 ad=0p pd=0u as=0p ps=0u w=2u l=0.15u
X112 GND a_2201_1050.t8 a_2977_103.t0 GND sky130_fd_pr__nfet_01v8 ad=0p pd=0u as=0p ps=0u w=0u l=0u
X113 VDD.t190 a_4447_989.t13 a_4125_1050.t6  sky130_fd_pr__pfet_01v8 ad=0p pd=0u as=0p ps=0u w=2u l=0.15u
X114 a_6049_1050.t5 RN.t23 VDD.t144  sky130_fd_pr__pfet_01v8 ad=0p pd=0u as=0p ps=0u w=2u l=0.15u
X115 a_17533_1051.t3 a_15991_989.t13 a_18197_1051.t4  sky130_fd_pr__pfet_01v8 ad=0p pd=0u as=0p ps=0u w=2u l=0.15u
X116 a_4447_989.t0 a_4125_1050.t9 VDD.t124  sky130_fd_pr__pfet_01v8 ad=0p pd=0u as=0p ps=0u w=2u l=0.15u
X117 VDD.t52 a_6049_1050.t12 a_6371_989.t0  sky130_fd_pr__pfet_01v8 ad=0p pd=0u as=0p ps=0u w=2u l=0.15u
X118 GND a_277_1050.t12 a_1053_103.t0 GND sky130_fd_pr__nfet_01v8 ad=0p pd=0u as=0p ps=0u w=0u l=0u
X119 a_4447_989.t5 a_1561_989.t15 VDD.t192  sky130_fd_pr__pfet_01v8 ad=0p pd=0u as=0p ps=0u w=2u l=0.15u
X120 a_15669_1050.t1 a_15991_989.t14 VDD.t20  sky130_fd_pr__pfet_01v8 ad=0p pd=0u as=0p ps=0u w=2u l=0.15u
X121 VDD.t77 a_11821_1050.t11 a_12143_989.t1  sky130_fd_pr__pfet_01v8 ad=0p pd=0u as=0p ps=0u w=2u l=0.15u
X122 VDD.t91 a_10219_989.t11 a_17533_1051.t6  sky130_fd_pr__pfet_01v8 ad=0p pd=0u as=0p ps=0u w=2u l=0.15u
X123 a_13105_989.t1 CLK.t16 VDD.t63  sky130_fd_pr__pfet_01v8 ad=0p pd=0u as=0p ps=0u w=2u l=0.15u
X124 VDD.t219 SN.t13 a_15991_989.t0  sky130_fd_pr__pfet_01v8 ad=0p pd=0u as=0p ps=0u w=2u l=0.15u
X125 VDD.t59 SN.t14 a_10219_989.t0  sky130_fd_pr__pfet_01v8 ad=0p pd=0u as=0p ps=0u w=2u l=0.15u
X126 a_13745_1050.t2 a_11821_1050.t12 VDD.t18  sky130_fd_pr__pfet_01v8 ad=0p pd=0u as=0p ps=0u w=2u l=0.15u
X127 VDD.t201 a_12143_989.t12 a_15669_1050.t5  sky130_fd_pr__pfet_01v8 ad=0p pd=0u as=0p ps=0u w=2u l=0.15u
X128 GND a_599_989.t7 a_3939_103.t0 GND sky130_fd_pr__nfet_01v8 ad=0p pd=0u as=0p ps=0u w=0u l=0u
X129 a_6049_1050.t3 a_6371_989.t12 VDD.t88  sky130_fd_pr__pfet_01v8 ad=0p pd=0u as=0p ps=0u w=2u l=0.15u
X130 VDD.t196 a_7333_989.t14 a_7973_1050.t5  sky130_fd_pr__pfet_01v8 ad=0p pd=0u as=0p ps=0u w=2u l=0.15u
X131 VDD.t217 a_10219_989.t14 a_9897_1050.t6  sky130_fd_pr__pfet_01v8 ad=0p pd=0u as=0p ps=0u w=2u l=0.15u
X132 VDD.t3 a_2201_1050.t9 a_1561_989.t0  sky130_fd_pr__pfet_01v8 ad=0p pd=0u as=0p ps=0u w=2u l=0.15u
X133 a_4447_989.t2 SN.t15 VDD.t81  sky130_fd_pr__pfet_01v8 ad=0p pd=0u as=0p ps=0u w=2u l=0.15u
X134 a_17708_209.t0 a_4447_989.t14 a_18197_1051.t2  sky130_fd_pr__pfet_01v8 ad=0p pd=0u as=0p ps=0u w=2u l=0.15u
X135 a_17533_1051.t0 a_4447_989.t15 a_18197_1051.t0  sky130_fd_pr__pfet_01v8 ad=0p pd=0u as=0p ps=0u w=2u l=0.15u
X136 VDD.t178 CLK.t17 a_6371_989.t5  sky130_fd_pr__pfet_01v8 ad=0p pd=0u as=0p ps=0u w=2u l=0.15u
X137 a_7333_989.t3 RN.t25 VDD.t142  sky130_fd_pr__pfet_01v8 ad=0p pd=0u as=0p ps=0u w=2u l=0.15u
X138 VDD.t136 D.t6 a_6049_1050.t1  sky130_fd_pr__pfet_01v8 ad=0p pd=0u as=0p ps=0u w=2u l=0.15u
X139 a_7973_1050.t2 SN.t16 VDD.t186  sky130_fd_pr__pfet_01v8 ad=0p pd=0u as=0p ps=0u w=2u l=0.15u
X140 a_18197_1051.t6 a_10219_989.t15 a_17708_209.t3  sky130_fd_pr__pfet_01v8 ad=0p pd=0u as=0p ps=0u w=2u l=0.15u
X141 VDD.t83 a_15991_989.t15 a_17533_1051.t4  sky130_fd_pr__pfet_01v8 ad=0p pd=0u as=0p ps=0u w=2u l=0.15u
X142 VDD.t114 D.t7 a_277_1050.t0  sky130_fd_pr__pfet_01v8 ad=0p pd=0u as=0p ps=0u w=2u l=0.15u
X143 VDD.t116 D.t8 a_11821_1050.t0  sky130_fd_pr__pfet_01v8 ad=0p pd=0u as=0p ps=0u w=2u l=0.15u
C0 VDD RN 2.65fF
C1 CLK VDD 8.69fF
C2 D RN 2.36fF
C3 SN VDD 1.76fF
C4 CLK D 12.06fF
C5 SN D 0.31fF
C6 CLK RN 1.11fF
C7 Q VDD 1.05fF
C8 SN RN 16.07fF
C9 CLK SN 0.63fF
C10 VDD D 11.48fF
R0 RN.n23 RN.t5 479.223
R1 RN.n17 RN.t19 479.223
R2 RN.n14 RN.t9 479.223
R3 RN.n8 RN.t2 479.223
R4 RN.n5 RN.t13 479.223
R5 RN.n0 RN.t1 479.223
R6 RN.n20 RN.t18 454.685
R7 RN.n11 RN.t25 454.685
R8 RN.n2 RN.t4 454.685
R9 RN.n20 RN.t6 428.979
R10 RN.n11 RN.t15 428.979
R11 RN.n2 RN.t21 428.979
R12 RN.n23 RN.t16 375.52
R13 RN.n17 RN.t8 375.52
R14 RN.n14 RN.t23 375.52
R15 RN.n8 RN.t11 375.52
R16 RN.n5 RN.t17 375.52
R17 RN.n0 RN.t10 375.52
R18 RN.n21 RN.n20 254.865
R19 RN.n12 RN.n11 254.865
R20 RN.n3 RN.n2 254.865
R21 RN.n24 RN.n23 252.188
R22 RN.n18 RN.n17 252.188
R23 RN.n15 RN.n14 252.188
R24 RN.n9 RN.n8 252.188
R25 RN.n6 RN.n5 252.188
R26 RN.n1 RN.n0 252.188
R27 RN.n24 RN.t20 231.854
R28 RN.n18 RN.t26 231.854
R29 RN.n15 RN.t7 231.854
R30 RN.n9 RN.t14 231.854
R31 RN.n6 RN.t12 231.854
R32 RN.n1 RN.t22 231.854
R33 RN.n21 RN.t24 228.106
R34 RN.n12 RN.t3 228.106
R35 RN.n3 RN.t0 228.106
R36 RN.n7 RN.n4 11.381
R37 RN.n16 RN.n13 11.381
R38 RN.n25 RN.n22 11.381
R39 RN.n4 RN.n1 7.325
R40 RN.n10 RN.n7 7.028
R41 RN.n19 RN.n16 7.028
R42 RN.n4 RN.n3 4.65
R43 RN.n7 RN.n6 4.65
R44 RN.n10 RN.n9 4.65
R45 RN.n13 RN.n12 4.65
R46 RN.n16 RN.n15 4.65
R47 RN.n19 RN.n18 4.65
R48 RN.n22 RN.n21 4.65
R49 RN.n25 RN.n24 4.65
R50 RN.n13 RN.n10 2.675
R51 RN.n22 RN.n19 2.675
R52 RN.n25 RN 0.046
R53 a_14802_210.n10 a_14802_210.n7 185.173
R54 a_14802_210.n1 a_14802_210.n0 102.58
R55 a_14802_210.t0 a_14802_210.n12 83.571
R56 a_14802_210.t0 a_14802_210.n10 75.765
R57 a_14802_210.n3 a_14802_210.n2 65.02
R58 a_14802_210.t0 a_14802_210.n3 58.043
R59 a_14802_210.n12 a_14802_210.n11 55.714
R60 a_14802_210.n3 a_14802_210.n1 35.865
R61 a_14802_210.n7 a_14802_210.n6 22.349
R62 a_14802_210.n9 a_14802_210.n8 19.952
R63 a_14802_210.n7 a_14802_210.n5 8.443
R64 a_14802_210.t0 a_14802_210.n4 8.137
R65 a_14802_210.n10 a_14802_210.n9 1.505
R66 a_13105_989.n7 a_13105_989.t13 454.685
R67 a_13105_989.n9 a_13105_989.t14 454.685
R68 a_13105_989.n5 a_13105_989.t11 454.685
R69 a_13105_989.n7 a_13105_989.t7 428.979
R70 a_13105_989.n9 a_13105_989.t12 428.979
R71 a_13105_989.n5 a_13105_989.t10 428.979
R72 a_13105_989.n15 a_13105_989.n13 342.597
R73 a_13105_989.n8 a_13105_989.t8 339.542
R74 a_13105_989.n6 a_13105_989.t9 339.542
R75 a_13105_989.n10 a_13105_989.t15 339.186
R76 a_13105_989.n3 a_13105_989.n2 161.352
R77 a_13105_989.n13 a_13105_989.n4 151.34
R78 a_13105_989.n8 a_13105_989.n7 143.429
R79 a_13105_989.n6 a_13105_989.n5 143.429
R80 a_13105_989.n10 a_13105_989.n9 143.074
R81 a_13105_989.n4 a_13105_989.n0 95.095
R82 a_13105_989.n3 a_13105_989.n1 95.095
R83 a_13105_989.n4 a_13105_989.n3 66.258
R84 a_13105_989.n15 a_13105_989.n14 15.218
R85 a_13105_989.n0 a_13105_989.t4 14.282
R86 a_13105_989.n0 a_13105_989.t3 14.282
R87 a_13105_989.n1 a_13105_989.t2 14.282
R88 a_13105_989.n1 a_13105_989.t1 14.282
R89 a_13105_989.n2 a_13105_989.t0 14.282
R90 a_13105_989.n2 a_13105_989.t6 14.282
R91 a_13105_989.n16 a_13105_989.n15 12.014
R92 a_13105_989.n12 a_13105_989.n6 11.134
R93 a_13105_989.n11 a_13105_989.n10 8.145
R94 a_13105_989.n11 a_13105_989.n8 4.65
R95 a_13105_989.n13 a_13105_989.n12 4.65
R96 a_13105_989.n12 a_13105_989.n11 4.035
R97 GND.n32 GND.n31 237.558
R98 GND.n64 GND.n63 237.558
R99 GND.n498 GND.n497 237.558
R100 GND.n540 GND.n539 237.558
R101 GND.n582 GND.n581 237.558
R102 GND.n626 GND.n625 237.558
R103 GND.n670 GND.n669 237.558
R104 GND.n715 GND.n714 237.558
R105 GND.n760 GND.n759 237.558
R106 GND.n805 GND.n804 237.558
R107 GND.n847 GND.n846 237.558
R108 GND.n432 GND.n431 237.558
R109 GND.n889 GND.n888 237.558
R110 GND.n388 GND.n387 237.558
R111 GND.n344 GND.n343 237.558
R112 GND.n302 GND.n301 237.558
R113 GND.n258 GND.n257 237.558
R114 GND.n216 GND.n215 237.558
R115 GND.n172 GND.n171 237.558
R116 GND.n128 GND.n127 237.558
R117 GND.n96 GND.n95 237.558
R118 GND.n29 GND.n28 210.82
R119 GND.n61 GND.n60 210.82
R120 GND.n93 GND.n92 210.82
R121 GND.n500 GND.n499 210.82
R122 GND.n542 GND.n541 210.82
R123 GND.n584 GND.n583 210.82
R124 GND.n628 GND.n627 210.82
R125 GND.n672 GND.n671 210.82
R126 GND.n717 GND.n716 210.82
R127 GND.n762 GND.n761 210.82
R128 GND.n807 GND.n806 210.82
R129 GND.n849 GND.n848 210.82
R130 GND.n891 GND.n890 210.82
R131 GND.n429 GND.n428 210.82
R132 GND.n385 GND.n384 210.82
R133 GND.n341 GND.n340 210.82
R134 GND.n299 GND.n298 210.82
R135 GND.n255 GND.n254 210.82
R136 GND.n213 GND.n212 210.82
R137 GND.n169 GND.n168 210.82
R138 GND.n125 GND.n124 210.82
R139 GND.n245 GND.n244 173.365
R140 GND.n331 GND.n330 173.365
R141 GND.n900 GND.n899 173.365
R142 GND.n858 GND.n857 173.365
R143 GND.n816 GND.n815 173.365
R144 GND.n551 GND.n550 173.365
R145 GND.n509 GND.n508 173.365
R146 GND.n467 GND.n466 173.365
R147 GND.n159 GND.n158 167.358
R148 GND.n203 GND.n202 167.358
R149 GND.n289 GND.n288 167.358
R150 GND.n375 GND.n374 167.358
R151 GND.n419 GND.n418 167.358
R152 GND.n639 GND.n638 167.358
R153 GND.n595 GND.n594 167.358
R154 GND.n82 GND.n81 166.605
R155 GND.n114 GND.n113 166.605
R156 GND.n50 GND.n49 166.605
R157 GND.n774 GND.n773 152.358
R158 GND.n729 GND.n728 152.358
R159 GND.n684 GND.n683 152.358
R160 GND.n20 GND.n19 37.582
R161 GND.t8 GND.n17 32.601
R162 GND.n773 GND.n772 28.421
R163 GND.n728 GND.n727 28.421
R164 GND.n683 GND.n682 28.421
R165 GND.n773 GND.n771 25.263
R166 GND.n728 GND.n726 25.263
R167 GND.n683 GND.n681 25.263
R168 GND.n771 GND.n770 24.383
R169 GND.n726 GND.n725 24.383
R170 GND.n681 GND.n680 24.383
R171 GND.n81 GND.n79 23.03
R172 GND.n113 GND.n111 23.03
R173 GND.n158 GND.n156 23.03
R174 GND.n202 GND.n200 23.03
R175 GND.n288 GND.n286 23.03
R176 GND.n374 GND.n372 23.03
R177 GND.n418 GND.n416 23.03
R178 GND.n638 GND.n636 23.03
R179 GND.n594 GND.n592 23.03
R180 GND.n49 GND.n47 23.03
R181 GND.n17 GND.n16 21.734
R182 GND.n4 GND.n3 20.705
R183 GND.n10 GND.n9 20.705
R184 GND.n21 GND.n20 20.705
R185 GND.n3 GND.n2 19.952
R186 GND.n30 GND.n29 18.953
R187 GND.n62 GND.n61 18.953
R188 GND.n94 GND.n93 18.953
R189 GND.n501 GND.n500 18.953
R190 GND.n543 GND.n542 18.953
R191 GND.n585 GND.n584 18.953
R192 GND.n629 GND.n628 18.953
R193 GND.n673 GND.n672 18.953
R194 GND.n718 GND.n717 18.953
R195 GND.n763 GND.n762 18.953
R196 GND.n808 GND.n807 18.953
R197 GND.n850 GND.n849 18.953
R198 GND.n892 GND.n891 18.953
R199 GND.n430 GND.n429 18.953
R200 GND.n386 GND.n385 18.953
R201 GND.n342 GND.n341 18.953
R202 GND.n300 GND.n299 18.953
R203 GND.n256 GND.n255 18.953
R204 GND.n214 GND.n213 18.953
R205 GND.n170 GND.n169 18.953
R206 GND.n126 GND.n125 18.953
R207 GND.n19 GND.t8 15.644
R208 GND.n33 GND.n30 14.864
R209 GND.n65 GND.n62 14.864
R210 GND.n97 GND.n94 14.864
R211 GND.n129 GND.n126 14.864
R212 GND.n173 GND.n170 14.864
R213 GND.n217 GND.n214 14.864
R214 GND.n259 GND.n256 14.864
R215 GND.n303 GND.n300 14.864
R216 GND.n345 GND.n342 14.864
R217 GND.n389 GND.n386 14.864
R218 GND.n433 GND.n430 14.864
R219 GND.n893 GND.n892 14.864
R220 GND.n851 GND.n850 14.864
R221 GND.n809 GND.n808 14.864
R222 GND.n764 GND.n763 14.864
R223 GND.n719 GND.n718 14.864
R224 GND.n674 GND.n673 14.864
R225 GND.n630 GND.n629 14.864
R226 GND.n586 GND.n585 14.864
R227 GND.n544 GND.n543 14.864
R228 GND.n502 GND.n501 14.864
R229 GND.n19 GND.n18 13.541
R230 GND.n463 GND.n462 9.154
R231 GND.n468 GND.n465 9.154
R232 GND.n471 GND.n470 9.154
R233 GND.n474 GND.n473 9.154
R234 GND.n477 GND.n476 9.154
R235 GND.n480 GND.n479 9.154
R236 GND.n483 GND.n482 9.154
R237 GND.n486 GND.n485 9.154
R238 GND.n489 GND.n488 9.154
R239 GND.n492 GND.n491 9.154
R240 GND.n495 GND.n494 9.154
R241 GND.n502 GND.n498 9.154
R242 GND.n505 GND.n504 9.154
R243 GND.n510 GND.n507 9.154
R244 GND.n513 GND.n512 9.154
R245 GND.n516 GND.n515 9.154
R246 GND.n519 GND.n518 9.154
R247 GND.n522 GND.n521 9.154
R248 GND.n525 GND.n524 9.154
R249 GND.n528 GND.n527 9.154
R250 GND.n531 GND.n530 9.154
R251 GND.n534 GND.n533 9.154
R252 GND.n537 GND.n536 9.154
R253 GND.n544 GND.n540 9.154
R254 GND.n547 GND.n546 9.154
R255 GND.n552 GND.n549 9.154
R256 GND.n555 GND.n554 9.154
R257 GND.n558 GND.n557 9.154
R258 GND.n561 GND.n560 9.154
R259 GND.n564 GND.n563 9.154
R260 GND.n567 GND.n566 9.154
R261 GND.n570 GND.n569 9.154
R262 GND.n573 GND.n572 9.154
R263 GND.n576 GND.n575 9.154
R264 GND.n579 GND.n578 9.154
R265 GND.n586 GND.n582 9.154
R266 GND.n589 GND.n588 9.154
R267 GND.n596 GND.n591 9.154
R268 GND.n599 GND.n598 9.154
R269 GND.n602 GND.n601 9.154
R270 GND.n605 GND.n604 9.154
R271 GND.n608 GND.n607 9.154
R272 GND.n611 GND.n610 9.154
R273 GND.n614 GND.n613 9.154
R274 GND.n617 GND.n616 9.154
R275 GND.n620 GND.n619 9.154
R276 GND.n623 GND.n622 9.154
R277 GND.n630 GND.n626 9.154
R278 GND.n633 GND.n632 9.154
R279 GND.n640 GND.n635 9.154
R280 GND.n643 GND.n642 9.154
R281 GND.n646 GND.n645 9.154
R282 GND.n649 GND.n648 9.154
R283 GND.n652 GND.n651 9.154
R284 GND.n655 GND.n654 9.154
R285 GND.n658 GND.n657 9.154
R286 GND.n661 GND.n660 9.154
R287 GND.n664 GND.n663 9.154
R288 GND.n667 GND.n666 9.154
R289 GND.n674 GND.n670 9.154
R290 GND.n677 GND.n676 9.154
R291 GND.n685 GND.n679 9.154
R292 GND.n688 GND.n687 9.154
R293 GND.n691 GND.n690 9.154
R294 GND.n694 GND.n693 9.154
R295 GND.n697 GND.n696 9.154
R296 GND.n700 GND.n699 9.154
R297 GND.n703 GND.n702 9.154
R298 GND.n706 GND.n705 9.154
R299 GND.n709 GND.n708 9.154
R300 GND.n712 GND.n711 9.154
R301 GND.n719 GND.n715 9.154
R302 GND.n722 GND.n721 9.154
R303 GND.n730 GND.n724 9.154
R304 GND.n733 GND.n732 9.154
R305 GND.n736 GND.n735 9.154
R306 GND.n739 GND.n738 9.154
R307 GND.n742 GND.n741 9.154
R308 GND.n745 GND.n744 9.154
R309 GND.n748 GND.n747 9.154
R310 GND.n751 GND.n750 9.154
R311 GND.n754 GND.n753 9.154
R312 GND.n757 GND.n756 9.154
R313 GND.n764 GND.n760 9.154
R314 GND.n767 GND.n766 9.154
R315 GND.n775 GND.n769 9.154
R316 GND.n778 GND.n777 9.154
R317 GND.n781 GND.n780 9.154
R318 GND.n784 GND.n783 9.154
R319 GND.n787 GND.n786 9.154
R320 GND.n790 GND.n789 9.154
R321 GND.n793 GND.n792 9.154
R322 GND.n796 GND.n795 9.154
R323 GND.n799 GND.n798 9.154
R324 GND.n802 GND.n801 9.154
R325 GND.n809 GND.n805 9.154
R326 GND.n812 GND.n811 9.154
R327 GND.n817 GND.n814 9.154
R328 GND.n820 GND.n819 9.154
R329 GND.n823 GND.n822 9.154
R330 GND.n826 GND.n825 9.154
R331 GND.n829 GND.n828 9.154
R332 GND.n832 GND.n831 9.154
R333 GND.n835 GND.n834 9.154
R334 GND.n838 GND.n837 9.154
R335 GND.n841 GND.n840 9.154
R336 GND.n844 GND.n843 9.154
R337 GND.n851 GND.n847 9.154
R338 GND.n854 GND.n853 9.154
R339 GND.n859 GND.n856 9.154
R340 GND.n862 GND.n861 9.154
R341 GND.n865 GND.n864 9.154
R342 GND.n868 GND.n867 9.154
R343 GND.n871 GND.n870 9.154
R344 GND.n874 GND.n873 9.154
R345 GND.n877 GND.n876 9.154
R346 GND.n880 GND.n879 9.154
R347 GND.n883 GND.n882 9.154
R348 GND.n886 GND.n885 9.154
R349 GND.n893 GND.n889 9.154
R350 GND.n896 GND.n895 9.154
R351 GND.n901 GND.n898 9.154
R352 GND.n457 GND.n456 9.154
R353 GND.n454 GND.n453 9.154
R354 GND.n451 GND.n450 9.154
R355 GND.n448 GND.n447 9.154
R356 GND.n445 GND.n444 9.154
R357 GND.n442 GND.n441 9.154
R358 GND.n439 GND.n438 9.154
R359 GND.n436 GND.n435 9.154
R360 GND.n433 GND.n432 9.154
R361 GND.n426 GND.n425 9.154
R362 GND.n423 GND.n422 9.154
R363 GND.n420 GND.n415 9.154
R364 GND.n413 GND.n412 9.154
R365 GND.n410 GND.n409 9.154
R366 GND.n407 GND.n406 9.154
R367 GND.n404 GND.n403 9.154
R368 GND.n401 GND.n400 9.154
R369 GND.n398 GND.n397 9.154
R370 GND.n395 GND.n394 9.154
R371 GND.n392 GND.n391 9.154
R372 GND.n389 GND.n388 9.154
R373 GND.n382 GND.n381 9.154
R374 GND.n379 GND.n378 9.154
R375 GND.n376 GND.n371 9.154
R376 GND.n369 GND.n368 9.154
R377 GND.n366 GND.n365 9.154
R378 GND.n363 GND.n362 9.154
R379 GND.n360 GND.n359 9.154
R380 GND.n357 GND.n356 9.154
R381 GND.n354 GND.n353 9.154
R382 GND.n351 GND.n350 9.154
R383 GND.n348 GND.n347 9.154
R384 GND.n345 GND.n344 9.154
R385 GND.n338 GND.n337 9.154
R386 GND.n335 GND.n334 9.154
R387 GND.n332 GND.n329 9.154
R388 GND.n327 GND.n326 9.154
R389 GND.n324 GND.n323 9.154
R390 GND.n321 GND.n320 9.154
R391 GND.n318 GND.n317 9.154
R392 GND.n315 GND.n314 9.154
R393 GND.n312 GND.n311 9.154
R394 GND.n309 GND.n308 9.154
R395 GND.n306 GND.n305 9.154
R396 GND.n303 GND.n302 9.154
R397 GND.n296 GND.n295 9.154
R398 GND.n293 GND.n292 9.154
R399 GND.n290 GND.n285 9.154
R400 GND.n283 GND.n282 9.154
R401 GND.n280 GND.n279 9.154
R402 GND.n277 GND.n276 9.154
R403 GND.n274 GND.n273 9.154
R404 GND.n271 GND.n270 9.154
R405 GND.n268 GND.n267 9.154
R406 GND.n265 GND.n264 9.154
R407 GND.n262 GND.n261 9.154
R408 GND.n259 GND.n258 9.154
R409 GND.n252 GND.n251 9.154
R410 GND.n249 GND.n248 9.154
R411 GND.n246 GND.n243 9.154
R412 GND.n241 GND.n240 9.154
R413 GND.n238 GND.n237 9.154
R414 GND.n235 GND.n234 9.154
R415 GND.n232 GND.n231 9.154
R416 GND.n229 GND.n228 9.154
R417 GND.n226 GND.n225 9.154
R418 GND.n223 GND.n222 9.154
R419 GND.n220 GND.n219 9.154
R420 GND.n217 GND.n216 9.154
R421 GND.n210 GND.n209 9.154
R422 GND.n207 GND.n206 9.154
R423 GND.n204 GND.n199 9.154
R424 GND.n197 GND.n196 9.154
R425 GND.n194 GND.n193 9.154
R426 GND.n191 GND.n190 9.154
R427 GND.n188 GND.n187 9.154
R428 GND.n185 GND.n184 9.154
R429 GND.n182 GND.n181 9.154
R430 GND.n179 GND.n178 9.154
R431 GND.n176 GND.n175 9.154
R432 GND.n173 GND.n172 9.154
R433 GND.n166 GND.n165 9.154
R434 GND.n163 GND.n162 9.154
R435 GND.n160 GND.n155 9.154
R436 GND.n153 GND.n152 9.154
R437 GND.n150 GND.n149 9.154
R438 GND.n147 GND.n146 9.154
R439 GND.n144 GND.n143 9.154
R440 GND.n141 GND.n140 9.154
R441 GND.n138 GND.n137 9.154
R442 GND.n135 GND.n134 9.154
R443 GND.n132 GND.n131 9.154
R444 GND.n129 GND.n128 9.154
R445 GND.n122 GND.n121 9.154
R446 GND.n119 GND.n118 9.154
R447 GND.n116 GND.n115 9.154
R448 GND.n109 GND.n108 9.154
R449 GND.n106 GND.n105 9.154
R450 GND.n103 GND.n102 9.154
R451 GND.n100 GND.n99 9.154
R452 GND.n97 GND.n96 9.154
R453 GND.n90 GND.n89 9.154
R454 GND.n87 GND.n86 9.154
R455 GND.n84 GND.n83 9.154
R456 GND.n77 GND.n76 9.154
R457 GND.n74 GND.n73 9.154
R458 GND.n6 GND.n5 9.154
R459 GND.n12 GND.n11 9.154
R460 GND.n23 GND.n22 9.154
R461 GND.n26 GND.n25 9.154
R462 GND.n33 GND.n32 9.154
R463 GND.n36 GND.n35 9.154
R464 GND.n39 GND.n38 9.154
R465 GND.n42 GND.n41 9.154
R466 GND.n45 GND.n44 9.154
R467 GND.n52 GND.n51 9.154
R468 GND.n55 GND.n54 9.154
R469 GND.n58 GND.n57 9.154
R470 GND.n65 GND.n64 9.154
R471 GND.n68 GND.n67 9.154
R472 GND.n71 GND.n70 9.154
R473 GND.n81 GND.n80 8.128
R474 GND.n113 GND.n112 8.128
R475 GND.n158 GND.n157 8.128
R476 GND.n202 GND.n201 8.128
R477 GND.n288 GND.n287 8.128
R478 GND.n374 GND.n373 8.128
R479 GND.n418 GND.n417 8.128
R480 GND.n638 GND.n637 8.128
R481 GND.n594 GND.n593 8.128
R482 GND.n49 GND.n48 8.128
R483 GND.n7 GND.n1 4.795
R484 GND.n461 GND.n460 4.65
R485 GND.n75 GND.n74 4.65
R486 GND.n78 GND.n77 4.65
R487 GND.n85 GND.n84 4.65
R488 GND.n88 GND.n87 4.65
R489 GND.n91 GND.n90 4.65
R490 GND.n98 GND.n97 4.65
R491 GND.n101 GND.n100 4.65
R492 GND.n104 GND.n103 4.65