* SPICE3 file created from TMRDFFSNRNQNX1.ext - technology: sky130A

.subckt TMRDFFSNRNQNX1 QN D CLK SN RN VDD GND
X0 GND a_6049_1050.t8 a_6825_103.t0 GND sky130_fd_pr__nfet_01v8 ad=3.7611p pd=3.297u as=0p ps=0u w=0u l=0u
X1 VDD.t227 RN.t1 a_15669_1050.t5 pV´U sky130_fd_pr__pfet_01v8 ad=0p pd=0u as=0p ps=0u w=2u l=0.15u
X2 GND a_4125_1050.t7 a_4901_103.t0 GND sky130_fd_pr__nfet_01v8 ad=0p pd=0u as=0p ps=0u w=0u l=0u
X3 a_599_989.t5 CLK.t0 VDD.t182 P_œ´U sky130_fd_pr__pfet_01v8 ad=0p pd=0u as=0p ps=0u w=2u l=0.15u
X4 VDD.t225 RN.t2 a_9897_1050.t6  sky130_fd_pr__pfet_01v8 ad=0p pd=0u as=0p ps=0u w=2u l=0.15u
X5 VDD.t67 CLK.t1 a_1561_989.t2 VDD.t66 sky130_fd_pr__pfet_01v8 ad=0p pd=0u as=0p ps=0u w=2u l=0.15u
X6 a_11821_1050.t4 a_12143_989.t7 VDD.t87 ð+Óôþ~ sky130_fd_pr__pfet_01v8 ad=0p pd=0u as=0p ps=0u w=2u l=0.15u
X7 VDD.t163 a_13105_989.t7 a_13745_1050.t5  sky130_fd_pr__pfet_01v8 ad=0p pd=0u as=0p ps=0u w=2u l=0.15u
X8 VDD.t77 a_277_1050.t7 a_2201_1050.t2  sky130_fd_pr__pfet_01v8 ad=0p pd=0u as=0p ps=0u w=2u l=0.15u
X9 a_7333_989.t3 CLK.t2 VDD.t24 VDD.t23 sky130_fd_pr__pfet_01v8 ad=0p pd=0u as=0p ps=0u w=2u l=0.15u
X10 a_10219_989.t1 SN.t0 VDD.t81 ð+Óôþ~ sky130_fd_pr__pfet_01v8 ad=0p pd=0u as=0p ps=0u w=2u l=0.15u
X11 VDD.t131 a_7333_989.t7 a_6371_989.t4 n´U sky130_fd_pr__pfet_01v8 ad=0p pd=0u as=0p ps=0u w=2u l=0.15u
X12 VDD.t22 CLK.t3 a_12143_989.t3  sky130_fd_pr__pfet_01v8 ad=0p pd=0u as=0p ps=0u w=2u l=0.15u
X13 GND a_4447_989.t8 a_18760_101.t0 GND sky130_fd_pr__nfet_01v8 ad=0p pd=0u as=0p ps=0u w=0u l=0u
X14 GND a_15991_989.t9 a_18094_101.t0 GND sky130_fd_pr__nfet_01v8 ad=0p pd=0u as=0p ps=0u w=0u l=0u
X15 a_13105_989.t5 RN.t4 VDD.t223 VDD.t222 sky130_fd_pr__pfet_01v8 ad=0p pd=0u as=0p ps=0u w=2u l=0.15u
X16 GND D.t0 a_11635_103.t0 GND sky130_fd_pr__nfet_01v8 ad=0p pd=0u as=0p ps=0u w=0u l=0u
X17 VDD.t221 RN.t5 a_277_1050.t6 ð+Óôþ~ sky130_fd_pr__pfet_01v8 ad=0p pd=0u as=0p ps=0u w=2u l=0.15u
X18 a_6371_989.t1 a_6049_1050.t7 VDD.t29  '8´U sky130_fd_pr__pfet_01v8 ad=0p pd=0u as=0p ps=0u w=2u l=0.15u
X19 GND a_6049_1050.t9 a_7787_103.t0 GND sky130_fd_pr__nfet_01v8 ad=0p pd=0u as=0p ps=0u w=0u l=0u
X20 VDD.t5 a_7973_1050.t7 a_7333_989.t0  HY´U sky130_fd_pr__pfet_01v8 ad=0p pd=0u as=0p ps=0u w=2u l=0.15u
X21 VDD.t104 a_9897_1050.t7 a_10219_989.t6  ý$´U sky130_fd_pr__pfet_01v8 ad=0p pd=0u as=0p ps=0u w=2u l=0.15u
X22 a_17533_1051.t4 a_15991_989.t8 VDD.t16  sky130_fd_pr__pfet_01v8 ad=0p pd=0u as=0p ps=0u w=2u l=0.15u
X23 a_12143_989.t2 CLK.t7 VDD.t123  sky130_fd_pr__pfet_01v8 ad=0p pd=0u as=0p ps=0u w=2u l=0.15u
X24 GND a_6371_989.t9 a_9711_103.t0 GND sky130_fd_pr__nfet_01v8 ad=0p pd=0u as=0p ps=0u w=0u l=0u
X25 QN a_10219_989.t8 a_18760_101.t0 GND sky130_fd_pr__nfet_01v8 ad=5.373p pd=4.72u as=0p ps=0u w=0u l=0u
X26 a_599_989.t3 a_1561_989.t7 VDD.t129 VDD.t128 sky130_fd_pr__pfet_01v8 ad=0p pd=0u as=0p ps=0u w=2u l=0.15u
X27 a_15991_989.t6 a_15669_1050.t7 VDD.t231 ð+Óôþ~ sky130_fd_pr__pfet_01v8 ad=0p pd=0u as=0p ps=0u w=2u l=0.15u
X28 GND D.t1 a_5863_103.t0 GND sky130_fd_pr__nfet_01v8 ad=0p pd=0u as=0p ps=0u w=0u l=0u
X29 VDD.t219 RN.t6 a_1561_989.t6 °f´U sky130_fd_pr__pfet_01v8 ad=0p pd=0u as=0p ps=0u w=2u l=0.15u
X30 a_9897_1050.t4 a_6371_989.t7 VDD.t189 €?´U sky130_fd_pr__pfet_01v8 ad=0p pd=0u as=0p ps=0u w=2u l=0.15u
X31 a_4125_1050.t4 a_599_989.t8 VDD.t55 @Íd´U sky130_fd_pr__pfet_01v8 ad=0p pd=0u as=0p ps=0u w=2u l=0.15u
X32 VDD.t63 SN.t2 a_2201_1050.t0 @C6´U sky130_fd_pr__pfet_01v8 ad=0p pd=0u as=0p ps=0u w=2u l=0.15u
X33 a_4125_1050.t0 a_4447_989.t7 VDD.t18 @`
´U sky130_fd_pr__pfet_01v8 ad=0p pd=0u as=0p ps=0u w=2u l=0.15u
X34 VDD.t89 a_6371_989.t8 a_6049_1050.t4  sky130_fd_pr__pfet_01v8 ad=0p pd=0u as=0p ps=0u w=2u l=0.15u
X35 a_18197_1051.t1 a_15991_989.t10 a_17533_1051.t2 VDD.t14 sky130_fd_pr__pfet_01v8 ad=0p pd=0u as=0p ps=0u w=2u l=0.15u
X36 a_1561_989.t1 CLK.t8 VDD.t147 ð+Óôþ~ sky130_fd_pr__pfet_01v8 ad=0p pd=0u as=0p ps=0u w=2u l=0.15u
X37 GND a_11821_1050.t8 a_12597_103.t0 GND sky130_fd_pr__nfet_01v8 ad=0p pd=0u as=0p ps=0u w=0u l=0u
X38 VDD.t135 a_599_989.t9 a_277_1050.t4 0›ü´U sky130_fd_pr__pfet_01v8 ad=0p pd=0u as=0p ps=0u w=2u l=0.15u
X39 a_13745_1050.t0 SN.t4 VDD.t133 °l”´U sky130_fd_pr__pfet_01v8 ad=0p pd=0u as=0p ps=0u w=2u l=0.15u
X40 GND a_13745_1050.t8 a_14521_103.t0 GND sky130_fd_pr__nfet_01v8 ad=0p pd=0u as=0p ps=0u w=0u l=0u
X41 GND a_9897_1050.t8 a_10673_103.t0 GND sky130_fd_pr__nfet_01v8 ad=0p pd=0u as=0p ps=0u w=0u l=0u
X42 a_17533_1051.t6 a_10219_989.t7 VDD.t98 Ð•´U sky130_fd_pr__pfet_01v8 ad=0p pd=0u as=0p ps=0u w=2u l=0.15u
X43 GND a_7973_1050.t9 a_8749_103.t0 GND sky130_fd_pr__nfet_01v8 ad=0p pd=0u as=0p ps=0u w=0u l=0u
X44 a_12143_989.t1 a_11821_1050.t7 VDD.t73  sky130_fd_pr__pfet_01v8 ad=0p pd=0u as=0p ps=0u w=2u l=0.15u
X45 VDD.t110 a_13745_1050.t7 a_13105_989.t3 €`ù´U sky130_fd_pr__pfet_01v8 ad=0p pd=0u as=0p ps=0u w=2u l=0.15u
X46 a_15991_989.t1 SN.t5 VDD.t100  sky130_fd_pr__pfet_01v8 ad=0p pd=0u as=0p ps=0u w=2u l=0.15u
X47 a_15669_1050.t3 a_12143_989.t8 VDD.t125 VDD.t124 sky130_fd_pr__pfet_01v8 ad=0p pd=0u as=0p ps=0u w=2u l=0.15u
X48 GND D.t4 a_91_103.t0 GND sky130_fd_pr__nfet_01v8 ad=0p pd=0u as=0p ps=0u w=0u l=0u
X49 a_4125_1050.t6 RN.t8 VDD.t217 ð+Óôþ~ sky130_fd_pr__pfet_01v8 ad=0p pd=0u as=0p ps=0u w=2u l=0.15u
X50 VDD.t151 a_1561_989.t8 a_2201_1050.t5 @r!´U sky130_fd_pr__pfet_01v8 ad=0p pd=0u as=0p ps=0u w=2u l=0.15u
X51 VDD.t215 RN.t9 a_6049_1050.t6 À,´U sky130_fd_pr__pfet_01v8 ad=0p pd=0u as=0p ps=0u w=2u l=0.15u
X52 a_7333_989.t1 a_7973_1050.t8 VDD.t139 Ì“´U sky130_fd_pr__pfet_01v8 ad=0p pd=0u as=0p ps=0u w=2u l=0.15u
X53 a_7973_1050.t6 a_7333_989.t8 VDD.t57  §!´U sky130_fd_pr__pfet_01v8 ad=0p pd=0u as=0p ps=0u w=2u l=0.15u
X54 a_9897_1050.t3 a_10219_989.t9 VDD.t176 ÀQ,´U sky130_fd_pr__pfet_01v8 ad=0p pd=0u as=0p ps=0u w=2u l=0.15u
X55 VDD.t161 a_13105_989.t10 a_15991_989.t4  sky130_fd_pr__pfet_01v8 ad=0p pd=0u as=0p ps=0u w=2u l=0.15u
X56 a_1561_989.t3 a_2201_1050.t7 VDD.t173 VDD.t172 sky130_fd_pr__pfet_01v8 ad=0p pd=0u as=0p ps=0u w=2u l=0.15u
X57 a_18197_1051.t5 a_4447_989.t9 a_17533_1051.t7 ð+Óôþ~ sky130_fd_pr__pfet_01v8 ad=0p pd=0u as=0p ps=0u w=2u l=0.15u
X58 VDD.t117 a_4125_1050.t8 a_4447_989.t1 À”+´U sky130_fd_pr__pfet_01v8 ad=0p pd=0u as=0p ps=0u w=2u l=0.15u
X59 GND a_15991_989.t12 a_17428_101.t0 GND sky130_fd_pr__nfet_01v8 ad=0p pd=0u as=0p ps=0u w=0u l=0u
X60 a_6371_989.t6 CLK.t10 VDD.t7 N“´U sky130_fd_pr__pfet_01v8 ad=0p pd=0u as=0p ps=0u w=2u l=0.15u
X61 VDD.t145 CLK.t11 a_7333_989.t2 €!´U sky130_fd_pr__pfet_01v8 ad=0p pd=0u as=0p ps=0u w=2u l=0.15u
X62 a_6049_1050.t0 D.t2 VDD.t20 ÀÓ+´U sky130_fd_pr__pfet_01v8 ad=0p pd=0u as=0p ps=0u w=2u l=0.15u
X63 GND a_11821_1050.t10 a_13559_103.t0 GND sky130_fd_pr__nfet_01v8 ad=0p pd=0u as=0p ps=0u w=0u l=0u
X64 QN.t4 a_10219_989.t10 a_18197_1051.t7 x“´U sky130_fd_pr__pfet_01v8 ad=0p pd=0u as=0p ps=0u w=2u l=0.15u
X65 GND a_12143_989.t9 a_15483_103.t0 GND sky130_fd_pr__nfet_01v8 ad=0p pd=0u as=0p ps=0u w=0u l=0u
X66 QN a_4447_989.t11 a_18094_101.t0 GND sky130_fd_pr__nfet_01v8 ad=0p pd=0u as=0p ps=0u w=0u l=0u
X67 a_277_1050.t0 D.t3 VDD.t96  sky130_fd_pr__pfet_01v8 ad=0p pd=0u as=0p ps=0u w=2u l=0.15u
X68 VDD.t53 CLK.t12 a_13105_989.t2 VDD.t52 sky130_fd_pr__pfet_01v8 ad=0p pd=0u as=0p ps=0u w=2u l=0.15u
X69 a_15991_989.t3 a_13105_989.t11 VDD.t159 ð+Óôþ~ sky130_fd_pr__pfet_01v8 ad=0p pd=0u as=0p ps=0u w=2u l=0.15u
X70 VDD.t137 a_11821_1050.t9 a_13745_1050.t2 ˆÚ´U sky130_fd_pr__pfet_01v8 ad=0p pd=0u as=0p ps=0u w=2u l=0.15u
X71 a_10219_989.t4 a_7333_989.t9 VDD.t9 ðñÚ´U sky130_fd_pr__pfet_01v8 ad=0p pd=0u as=0p ps=0u w=2u l=0.15u
X72 VDD.t157 a_13105_989.t12 a_12143_989.t6 ÐÛ´U sky130_fd_pr__pfet_01v8 ad=0p pd=0u as=0p ps=0u w=2u l=0.15u
X73 a_15669_1050.t6 RN.t10 VDD.t213 à1B´U sky130_fd_pr__pfet_01v8 ad=0p pd=0u as=0p ps=0u w=2u l=0.15u
X74 VDD.t171 a_277_1050.t8 a_599_989.t6 ÀxB´U sky130_fd_pr__pfet_01v8 ad=0p pd=0u as=0p ps=0u w=2u l=0.15u
X75 a_9897_1050.t5 RN.t11 VDD.t211  sky130_fd_pr__pfet_01v8 ad=0p pd=0u as=0p ps=0u w=2u l=0.15u
X76 VDD.t209 RN.t13 a_11821_1050.t6 VDD.t208 sky130_fd_pr__pfet_01v8 ad=0p pd=0u as=0p ps=0u w=2u l=0.15u
X77 VDD.t106 a_1561_989.t9 a_599_989.t1 ð+Óôþ~ sky130_fd_pr__pfet_01v8 ad=0p pd=0u as=0p ps=0u w=2u l=0.15u
X78 a_13745_1050.t4 a_13105_989.t13 VDD.t155  >a´U sky130_fd_pr__pfet_01v8 ad=0p pd=0u as=0p ps=0u w=2u l=0.15u
X79 VDD.t83 SN.t6 a_4447_989.t3 PA´U sky130_fd_pr__pfet_01v8 ad=0p pd=0u as=0p ps=0u w=2u l=0.15u
X80 a_18197_1051.t2 a_4447_989.t10 QN.t1 @º-´U sky130_fd_pr__pfet_01v8 ad=0p pd=0u as=0p ps=0u w=2u l=0.15u
X81 VDD.t119 a_15991_989.t11 a_15669_1050.t2 Ð&’´U sky130_fd_pr__pfet_01v8 ad=0p pd=0u as=0p ps=0u w=2u l=0.15u
X82 a_6371_989.t3 a_7333_989.t10 VDD.t75 ÐP’´U sky130_fd_pr__pfet_01v8 ad=0p pd=0u as=0p ps=0u w=2u l=0.15u
X83 GND a_15669_1050.t8 a_16445_103.t0 GND sky130_fd_pr__nfet_01v8 ad=0p pd=0u as=0p ps=0u w=0u l=0u
X84 VDD.t207 RN.t15 a_7333_989.t6  sky130_fd_pr__pfet_01v8 ad=0p pd=0u as=0p ps=0u w=2u l=0.15u
X85 VDD.t178 SN.t7 a_7973_1050.t3 VDD.t177 sky130_fd_pr__pfet_01v8 ad=0p pd=0u as=0p ps=0u w=2u l=0.15u
X86 a_277_1050.t5 RN.t16 VDD.t203 ð+Óôþ~ sky130_fd_pr__pfet_01v8 ad=0p pd=0u as=0p ps=0u w=2u l=0.15u
X87 a_11821_1050.t5 RN.t17 VDD.t205 @,´U sky130_fd_pr__pfet_01v8 ad=0p pd=0u as=0p ps=0u w=2u l=0.15u
X88 VDD.t185 SN.t8 a_13745_1050.t6  sky130_fd_pr__pfet_01v8 ad=0p pd=0u as=0p ps=0u w=2u l=0.15u
X89 a_10219_989.t5 a_9897_1050.t9 VDD.t61 VDD.t60 sky130_fd_pr__pfet_01v8 ad=0p pd=0u as=0p ps=0u w=2u l=0.15u
X90 VDD.t180 CLK.t14 a_599_989.t4  sky130_fd_pr__pfet_01v8 ad=0p pd=0u as=0p ps=0u w=2u l=0.15u
X91 VDD.t108 a_12143_989.t10 a_11821_1050.t3  sky130_fd_pr__pfet_01v8 ad=0p pd=0u as=0p ps=0u w=2u l=0.15u
X92 a_1561_989.t5 RN.t18 VDD.t201  sky130_fd_pr__pfet_01v8 ad=0p pd=0u as=0p ps=0u w=2u l=0.15u
X93 VDD.t127 a_1561_989.t10 a_4447_989.t6  sky130_fd_pr__pfet_01v8 ad=0p pd=0u as=0p ps=0u w=2u l=0.15u
X94 a_2201_1050.t6 SN.t11 VDD.t165  sky130_fd_pr__pfet_01v8 ad=0p pd=0u as=0p ps=0u w=2u l=0.15u
X95 GND a_277_1050.t11 a_2015_103.t0 GND sky130_fd_pr__nfet_01v8 ad=0p pd=0u as=0p ps=0u w=0u l=0u
X96 VDD.t199 RN.t19 a_4125_1050.t5  sky130_fd_pr__pfet_01v8 ad=0p pd=0u as=0p ps=0u w=2u l=0.15u
X97 a_12143_989.t5 a_13105_989.t14 VDD.t153  sky130_fd_pr__pfet_01v8 ad=0p pd=0u as=0p ps=0u w=2u l=0.15u
X98 a_599_989.t2 a_277_1050.t9 VDD.t112  sky130_fd_pr__pfet_01v8 ad=0p pd=0u as=0p ps=0u w=2u l=0.15u
X99 VDD.t51 a_6049_1050.t10 a_7973_1050.t1  sky130_fd_pr__pfet_01v8 ad=0p pd=0u as=0p ps=0u w=2u l=0.15u
X100 VDD.t197 RN.t21 a_13105_989.t4  sky130_fd_pr__pfet_01v8 ad=0p pd=0u as=0p ps=0u w=2u l=0.15u
X101 a_277_1050.t3 a_599_989.t11 VDD.t69  sky130_fd_pr__pfet_01v8 ad=0p pd=0u as=0p ps=0u w=2u l=0.15u
X102 a_11821_1050.t0 D.t5 VDD.t59  sky130_fd_pr__pfet_01v8 ad=0p pd=0u as=0p ps=0u w=2u l=0.15u
X103 a_13105_989.t0 a_13745_1050.t9 VDD.t1  sky130_fd_pr__pfet_01v8 ad=0p pd=0u as=0p ps=0u w=2u l=0.15u
X104 VDD.t229 a_15669_1050.t9 a_15991_989.t5  sky130_fd_pr__pfet_01v8 ad=0p pd=0u as=0p ps=0u w=2u l=0.15u
X105 a_7973_1050.t0 a_6049_1050.t11 VDD.t85  sky130_fd_pr__pfet_01v8 ad=0p pd=0u as=0p ps=0u w=2u l=0.15u
X106 VDD.t3 a_6371_989.t10 a_9897_1050.t0  sky130_fd_pr__pfet_01v8 ad=0p pd=0u as=0p ps=0u w=2u l=0.15u
X107 QN a_10219_989.t12 a_17428_101.t1 GND sky130_fd_pr__nfet_01v8 ad=0p pd=0u as=0p ps=0u w=0u l=0u
X108 a_2201_1050.t1 a_277_1050.t10 VDD.t47  sky130_fd_pr__pfet_01v8 ad=0p pd=0u as=0p ps=0u w=2u l=0.15u
X109 VDD.t31 a_7333_989.t11 a_10219_989.t3  sky130_fd_pr__pfet_01v8 ad=0p pd=0u as=0p ps=0u w=2u l=0.15u
X110 a_2201_1050.t4 a_1561_989.t12 VDD.t43  sky130_fd_pr__pfet_01v8 ad=0p pd=0u as=0p ps=0u w=2u l=0.15u
X111 VDD.t33 a_599_989.t12 a_4125_1050.t3  sky130_fd_pr__pfet_01v8 ad=0p pd=0u as=0p ps=0u w=2u l=0.15u
X112 GND a_2201_1050.t8 a_2977_103.t0 GND sky130_fd_pr__nfet_01v8 ad=0p pd=0u as=0p ps=0u w=0u l=0u
X113 VDD.t191 a_4447_989.t13 a_4125_1050.t2  sky130_fd_pr__pfet_01v8 ad=0p pd=0u as=0p ps=0u w=2u l=0.15u
X114 a_6049_1050.t5 RN.t23 VDD.t195  sky130_fd_pr__pfet_01v8 ad=0p pd=0u as=0p ps=0u w=2u l=0.15u
X115 a_17533_1051.t1 a_15991_989.t13 a_18197_1051.t0  sky130_fd_pr__pfet_01v8 ad=0p pd=0u as=0p ps=0u w=2u l=0.15u
X116 a_4447_989.t0 a_4125_1050.t9 VDD.t115  sky130_fd_pr__pfet_01v8 ad=0p pd=0u as=0p ps=0u w=2u l=0.15u
X117 VDD.t27 a_6049_1050.t12 a_6371_989.t0  sky130_fd_pr__pfet_01v8 ad=0p pd=0u as=0p ps=0u w=2u l=0.15u
X118 GND a_277_1050.t12 a_1053_103.t0 GND sky130_fd_pr__nfet_01v8 ad=0p pd=0u as=0p ps=0u w=0u l=0u
X119 a_4447_989.t5 a_1561_989.t15 VDD.t41  sky130_fd_pr__pfet_01v8 ad=0p pd=0u as=0p ps=0u w=2u l=0.15u
X120 a_15669_1050.t0 a_15991_989.t14 VDD.t65  sky130_fd_pr__pfet_01v8 ad=0p pd=0u as=0p ps=0u w=2u l=0.15u
X121 VDD.t71 a_11821_1050.t11 a_12143_989.t0  sky130_fd_pr__pfet_01v8 ad=0p pd=0u as=0p ps=0u w=2u l=0.15u
X122 VDD.t187 a_10219_989.t11 a_17533_1051.t5  sky130_fd_pr__pfet_01v8 ad=0p pd=0u as=0p ps=0u w=2u l=0.15u
X123 a_13105_989.t1 CLK.t16 VDD.t45  sky130_fd_pr__pfet_01v8 ad=0p pd=0u as=0p ps=0u w=2u l=0.15u
X124 VDD.t13 SN.t13 a_15991_989.t0  sky130_fd_pr__pfet_01v8 ad=0p pd=0u as=0p ps=0u w=2u l=0.15u
X125 VDD.t39 SN.t14 a_10219_989.t0  sky130_fd_pr__pfet_01v8 ad=0p pd=0u as=0p ps=0u w=2u l=0.15u
X126 a_13745_1050.t1 a_11821_1050.t12 VDD.t35  sky130_fd_pr__pfet_01v8 ad=0p pd=0u as=0p ps=0u w=2u l=0.15u
X127 VDD.t149 a_12143_989.t12 a_15669_1050.t4  sky130_fd_pr__pfet_01v8 ad=0p pd=0u as=0p ps=0u w=2u l=0.15u
X128 GND a_599_989.t7 a_3939_103.t0 GND sky130_fd_pr__nfet_01v8 ad=0p pd=0u as=0p ps=0u w=0u l=0u
X129 a_6049_1050.t3 a_6371_989.t12 VDD.t79  sky130_fd_pr__pfet_01v8 ad=0p pd=0u as=0p ps=0u w=2u l=0.15u
X130 VDD.t37 a_7333_989.t14 a_7973_1050.t5  sky130_fd_pr__pfet_01v8 ad=0p pd=0u as=0p ps=0u w=2u l=0.15u
X131 VDD.t11 a_10219_989.t14 a_9897_1050.t2  sky130_fd_pr__pfet_01v8 ad=0p pd=0u as=0p ps=0u w=2u l=0.15u
X132 VDD.t49 a_2201_1050.t9 a_1561_989.t0  sky130_fd_pr__pfet_01v8 ad=0p pd=0u as=0p ps=0u w=2u l=0.15u
X133 a_4447_989.t2 SN.t15 VDD.t94  sky130_fd_pr__pfet_01v8 ad=0p pd=0u as=0p ps=0u w=2u l=0.15u
X134 QN.t0 a_4447_989.t14 a_18197_1051.t3  sky130_fd_pr__pfet_01v8 ad=0p pd=0u as=0p ps=0u w=2u l=0.15u
X135 a_17533_1051.t0 a_4447_989.t15 a_18197_1051.t4  sky130_fd_pr__pfet_01v8 ad=0p pd=0u as=0p ps=0u w=2u l=0.15u
X136 VDD.t102 CLK.t17 a_6371_989.t5  sky130_fd_pr__pfet_01v8 ad=0p pd=0u as=0p ps=0u w=2u l=0.15u
X137 a_7333_989.t5 RN.t25 VDD.t193  sky130_fd_pr__pfet_01v8 ad=0p pd=0u as=0p ps=0u w=2u l=0.15u
X138 VDD.t121 D.t6 a_6049_1050.t1  sky130_fd_pr__pfet_01v8 ad=0p pd=0u as=0p ps=0u w=2u l=0.15u
X139 a_7973_1050.t2 SN.t16 VDD.t91  sky130_fd_pr__pfet_01v8 ad=0p pd=0u as=0p ps=0u w=2u l=0.15u
X140 a_18197_1051.t6 a_10219_989.t15 QN.t3  sky130_fd_pr__pfet_01v8 ad=0p pd=0u as=0p ps=0u w=2u l=0.15u
X141 VDD.t167 a_15991_989.t15 a_17533_1051.t3  sky130_fd_pr__pfet_01v8 ad=0p pd=0u as=0p ps=0u w=2u l=0.15u
X142 VDD.t143 D.t7 a_277_1050.t1  sky130_fd_pr__pfet_01v8 ad=0p pd=0u as=0p ps=0u w=2u l=0.15u
X143 VDD.t141 D.t8 a_11821_1050.t1  sky130_fd_pr__pfet_01v8 ad=0p pd=0u as=0p ps=0u w=2u l=0.15u
C0 D RN 2.36fF
C1 CLK VDD 8.69fF
C2 CLK D 12.06fF
C3 CLK RN 1.11fF
C4 SN VDD 1.76fF
C5 QN VDD 0.73fF
C6 SN D 0.31fF
C7 SN RN 16.07fF
C8 VDD D 11.48fF
C9 CLK SN 0.63fF
C10 VDD RN 2.65fF
R0 RN.n23 RN.t5 479.223
R1 RN.n17 RN.t19 479.223
R2 RN.n14 RN.t9 479.223
R3 RN.n8 RN.t2 479.223
R4 RN.n5 RN.t13 479.223
R5 RN.n0 RN.t1 479.223
R6 RN.n20 RN.t18 454.685
R7 RN.n11 RN.t25 454.685
R8 RN.n2 RN.t4 454.685
R9 RN.n20 RN.t6 428.979
R10 RN.n11 RN.t15 428.979
R11 RN.n2 RN.t21 428.979
R12 RN.n23 RN.t16 375.52
R13 RN.n17 RN.t8 375.52
R14 RN.n14 RN.t23 375.52
R15 RN.n8 RN.t11 375.52
R16 RN.n5 RN.t17 375.52
R17 RN.n0 RN.t10 375.52
R18 RN.n21 RN.n20 254.865
R19 RN.n12 RN.n11 254.865
R20 RN.n3 RN.n2 254.865
R21 RN.n24 RN.n23 252.188
R22 RN.n18 RN.n17 252.188
R23 RN.n15 RN.n14 252.188
R24 RN.n9 RN.n8 252.188
R25 RN.n6 RN.n5 252.188
R26 RN.n1 RN.n0 252.188
R27 RN.n24 RN.t20 231.854
R28 RN.n18 RN.t26 231.854
R29 RN.n15 RN.t7 231.854
R30 RN.n9 RN.t14 231.854
R31 RN.n6 RN.t12 231.854
R32 RN.n1 RN.t22 231.854
R33 RN.n21 RN.t24 228.106
R34 RN.n12 RN.t3 228.106
R35 RN.n3 RN.t0 228.106
R36 RN.n7 RN.n4 11.381
R37 RN.n16 RN.n13 11.381
R38 RN.n25 RN.n22 11.381
R39 RN.n4 RN.n1 7.325
R40 RN.n10 RN.n7 7.028
R41 RN.n19 RN.n16 7.028
R42 RN.n4 RN.n3 4.65
R43 RN.n7 RN.n6 4.65
R44 RN.n10 RN.n9 4.65
R45 RN.n13 RN.n12 4.65
R46 RN.n16 RN.n15 4.65
R47 RN.n19 RN.n18 4.65
R48 RN.n22 RN.n21 4.65
R49 RN.n25 RN.n24 4.65
R50 RN.n13 RN.n10 2.675
R51 RN.n22 RN.n19 2.675
R52 RN.n25 RN 0.046
R53 a_14802_210.n12 a_14802_210.n10 171.558
R54 a_14802_210.n7 a_14802_210.n6 117.622
R55 a_14802_210.n5 a_14802_210.n4 92.5
R56 a_14802_210.n9 a_14802_210.n8 92.5
R57 a_14802_210.n10 a_14802_210.t1 75.764
R58 a_14802_210.n5 a_14802_210.n3 65.02
R59 a_14802_210.n13 a_14802_210.n0 49.6
R60 a_14802_210.n7 a_14802_210.n5 36.517
R61 a_14802_210.n3 a_14802_210.n2 35.865
R62 a_14802_210.n12 a_14802_210.n11 27.2
R63 a_14802_210.n13 a_14802_210.n12 22.4
R64 a_14802_210.n9 a_14802_210.n7 19.952
R65 a_14802_210.t1 a_14802_210.n1 7.04
R66 a_14802_210.n10 a_14802_210.n9 1.505
R67 a_13105_989.n7 a_13105_989.t13 454.685
R68 a_13105_989.n9 a_13105_989.t14 454.685
R69 a_13105_989.n5 a_13105_989.t11 454.685
R70 a_13105_989.n7 a_13105_989.t7 428.979
R71 a_13105_989.n9 a_13105_989.t12 428.979
R72 a_13105_989.n5 a_13105_989.t10 428.979
R73 a_13105_989.n15 a_13105_989.n13 342.597
R74 a_13105_989.n8 a_13105_989.t8 339.542
R75 a_13105_989.n6 a_13105_989.t9 339.542
R76 a_13105_989.n10 a_13105_989.t15 339.186
R77 a_13105_989.n3 a_13105_989.n2 161.352
R78 a_13105_989.n13 a_13105_989.n4 151.34
R79 a_13105_989.n8 a_13105_989.n7 143.429
R80 a_13105_989.n6 a_13105_989.n5 143.429
R81 a_13105_989.n10 a_13105_989.n9 143.074
R82 a_13105_989.n4 a_13105_989.n0 95.095
R83 a_13105_989.n3 a_13105_989.n1 95.095
R84 a_13105_989.n4 a_13105_989.n3 66.258
R85 a_13105_989.n15 a_13105_989.n14 15.218
R86 a_13105_989.n0 a_13105_989.t4 14.282
R87 a_13105_989.n0 a_13105_989.t5 14.282
R88 a_13105_989.n1 a_13105_989.t2 14.282
R89 a_13105_989.n1 a_13105_989.t1 14.282
R90 a_13105_989.n2 a_13105_989.t3 14.282
R91 a_13105_989.n2 a_13105_989.t0 14.282
R92 a_13105_989.n16 a_13105_989.n15 12.014
R93 a_13105_989.n12 a_13105_989.n6 11.134
R94 a_13105_989.n11 a_13105_989.n10 8.145
R95 a_13105_989.n11 a_13105_989.n8 4.65
R96 a_13105_989.n13 a_13105_989.n12 4.65
R97 a_13105_989.n12 a_13105_989.n11 4.035
R98 GND.n28 GND.n27 237.558
R99 GND.n473 GND.n472 237.558
R100 GND.n517 GND.n516 237.558
R101 GND.n561 GND.n560 237.558
R102 GND.n605 GND.n604 237.558
R103 GND.n647 GND.n646 237.558
R104 GND.n692 GND.n691 237.558
R105 GND.n737 GND.n736 237.558
R106 GND.n782 GND.n781 237.558
R107 GND.n824 GND.n823 237.558
R108 GND.n390 GND.n389 237.558
R109 GND.n428 GND.n427 237.558
R110 GND.n348 GND.n347 237.558
R111 GND.n304 GND.n303 237.558
R112 GND.n260 GND.n259 237.558
R113 GND.n216 GND.n215 237.558
R114 GND.n174 GND.n173 237.558
R115 GND.n130 GND.n129 237.558
R116 GND.n88 GND.n87 237.558
R117 GND.n58 GND.n57 237.558
R118 GND.n25 GND.n24 210.82
R119 GND.n55 GND.n54 210.82
R120 GND.n475 GND.n474 210.82
R121 GND.n519 GND.n518 210.82
R122 GND.n563 GND.n562 210.82
R123 GND.n607 GND.n606 210.82
R124 GND.n649 GND.n648 210.82
R125 GND.n694 GND.n693 210.82
R126 GND.n739 GND.n738 210.82
R127 GND.n784 GND.n783 210.82
R128 GND.n826 GND.n825 210.82
R129 GND.n430 GND.n429 210.82
R130 GND.n387 GND.n386 210.82
R131 GND.n345 GND.n344 210.82
R132 GND.n301 GND.n300 210.82
R133 GND.n257 GND.n256 210.82
R134 GND.n213 GND.n212 210.82
R135 GND.n171 GND.n170 210.82
R136 GND.n127 GND.n126 210.82
R137 GND.n85 GND.n84 210.82
R138 GND.n117 GND.n116 173.365
R139 GND.n203 GND.n202 173.365
R140 GND.n377 GND.n376 173.365
R141 GND.n793 GND.n792 173.365
R142 GND.n616 GND.n615 173.365
R143 GND.n442 GND.n441 173.365
R144 GND.n44 GND.n43 172.612
R145 GND.n74 GND.n73 172.612
R146 GND.n14 GND.n13 172.612
R147 GND.n161 GND.n160 167.358
R148 GND.n247 GND.n246 167.358
R149 GND.n291 GND.n290 167.358
R150 GND.n335 GND.n334 167.358
R151 GND.n421 GND.n420 167.358
R152 GND.n837 GND.n836 167.358
R153 GND.n574 GND.n573 167.358
R154 GND.n530 GND.n529 167.358
R155 GND.n486 GND.n485 167.358
R156 GND.n751 GND.n750 152.358
R157 GND.n706 GND.n705 152.358
R158 GND.n661 GND.n660 152.358
R159 GND.n750 GND.n749 28.421
R160 GND.n705 GND.n704 28.421
R161 GND.n660 GND.n659 28.421
R162 GND.n750 GND.n748 25.263
R163 GND.n705 GND.n703 25.263
R164 GND.n660 GND.n658 25.263
R165 GND.n748 GND.n747 24.383
R166 GND.n703 GND.n702 24.383
R167 GND.n658 GND.n657 24.383
R168 GND.n160 GND.n158 23.03
R169 GND.n246 GND.n244 23.03
R170 GND.n290 GND.n288 23.03
R171 GND.n334 GND.n332 23.03
R172 GND.n420 GND.n418 23.03
R173 GND.n836 GND.n834 23.03
R174 GND.n573 GND.n571 23.03
R175 GND.n529 GND.n527 23.03
R176 GND.n485 GND.n483 23.03
R177 GND.n26 GND.n25 18.953
R178 GND.n56 GND.n55 18.953
R179 GND.n476 GND.n475 18.953
R180 GND.n520 GND.n519 18.953
R181 GND.n564 GND.n563 18.953
R182 GND.n608 GND.n607 18.953
R183 GND.n650 GND.n649 18.953
R184 GND.n695 GND.n694 18.953
R185 GND.n740 GND.n739 18.953
R186 GND.n785 GND.n784 18.953
R187 GND.n827 GND.n826 18.953
R188 GND.n431 GND.n430 18.953
R189 GND.n388 GND.n387 18.953
R190 GND.n346 GND.n345 18.953
R191 GND.n302 GND.n301 18.953
R192 GND.n258 GND.n257 18.953
R193 GND.n214 GND.n213 18.953
R194 GND.n172 GND.n171 18.953
R195 GND.n128 GND.n127 18.953
R196 GND.n86 GND.n85 18.953
R197 GND.n29 GND.n26 14.864
R198 GND.n59 GND.n56 14.864
R199 GND.n89 GND.n86 14.864
R200 GND.n131 GND.n128 14.864
R201 GND.n175 GND.n172 14.864
R202 GND.n217 GND.n214 14.864
R203 GND.n261 GND.n258 14.864
R204 GND.n305 GND.n302 14.864
R205 GND.n349 GND.n346 14.864
R206 GND.n391 GND.n388 14.864
R207 GND.n432 GND.n431 14.864
R208 GND.n828 GND.n827 14.864
R209 GND.n786 GND.n785 14.864
R210 GND.n741 GND.n740 14.864
R211 GND.n696 GND.n695 14.864
R212 GND.n651 GND.n650 14.864
R213 GND.n609 GND.n608 14.864
R214 GND.n565 GND.n564 14.864
R215 GND.n521 GND.n520 14.864
R216 GND.n477 GND.n476 14.864
R217 GND.n438 GND.n437 9.154
R218 GND.n443 GND.n440 9.154
R219 GND.n446 GND.n445 9.154
R220 GND.n449 GND.n448 9.154
R221 GND.n452 GND.n451 9.154
R222 GND.n455 GND.n454 9.154
R223 GND.n458 GND.n457 9.154
R224 GND.n461 GND.n460 9.154
R225 GND.n464 GND.n463 9.154
R226 GND.n467 GND.n466 9.154
R227 GND.n470 GND.n469 9.154
R228 GND.n477 GND.n473 9.154
R229 GND.n480 GND.n479 9.154
R230 GND.n487 GND.n482 9.154
R231 GND.n490 GND.n489 9.154
R232 GND.n493 GND.n492 9.154
R233 GND.n496 GND.n495 9.154
R234 GND.n499 GND.n498 9.154
R235 GND.n502 GND.n501 9.154
R236 GND.n505 GND.n504 9.154
R237 GND.n508 GND.n507 9.154
R238 GND.n511 GND.n510 9.154
R239 GND.n514 GND.n513 9.154
R240 GND.n521 GND.n517 9.154
R241 GND.n524 GND.n523 9.154
R242 GND.n531 GND.n526 9.154
R243 GND.n534 GND.n533 9.154
R244 GND.n537 GND.n536 9.154
R245 GND.n540 GND.n539 9.154
R246 GND.n543 GND.n542 9.154
R247 GND.n546 GND.n545 9.154
R248 GND.n549 GND.n548 9.154
R249 GND.n552 GND.n551 9.154
R250 GND.n555 GND.n554 9.154
R251 GND.n558 GND.n557 9.154
R252 GND.n565 GND.n561 9.154
R253 GND.n568 GND.n567 9.154
R254 GND.n575 GND.n570 9.154
R255 GND.n578 GND.n577 9.154
R256 GND.n581 GND.n580 9.154
R257 GND.n584 GND.n583 9.154
R258 GND.n587 GND.n586 9.154
R259 GND.n590 GND.n589 9.154
R260 GND.n593 GND.n592 9.154
R261 GND.n596 GND.n595 9.154
R262 GND.n599 GND.n598 9.154
R263 GND.n602 GND.n601 9.154
R264 GND.n609 GND.n605 9.154
R265 GND.n612 GND.n611 9.154
R266 GND.n617 GND.n614 9.154
R267 GND.n620 GND.n619 9.154
R268 GND.n623 GND.n622 9.154
R269 GND.n626 GND.n625 9.154
R270 GND.n629 GND.n628 9.154
R271 GND.n632 GND.n631 9.154
R272 GND.n635 GND.n634 9.154
R273 GND.n638 GND.n637 9.154
R274 GND.n641 GND.n640 9.154
R275 GND.n644 GND.n643 9.154
R276 GND.n651 GND.n647 9.154
R277 GND.n654 GND.n653 9.154
R278 GND.n662 GND.n656 9.154
R279 GND.n665 GND.n664 9.154
R280 GND.n668 GND.n667 9.154
R281 GND.n671 GND.n670 9.154
R282 GND.n674 GND.n673 9.154
R283 GND.n677 GND.n676 9.154
R284 GND.n680 GND.n679 9.154
R285 GND.n683 GND.n682 9.154
R286 GND.n686 GND.n685 9.154
R287 GND.n689 GND.n688 9.154
R288 GND.n696 GND.n692 9.154
R289 GND.n699 GND.n698 9.154
R290 GND.n707 GND.n701 9.154
R291 GND.n710 GND.n709 9.154
R292 GND.n713 GND.n712 9.154
R293 GND.n716 GND.n715 9.154
R294 GND.n719 GND.n718 9.154
R295 GND.n722 GND.n721 9.154
R296 GND.n725 GND.n724 9.154
R297 GND.n728 GND.n727 9.154
R298 GND.n731 GND.n730 9.154
R299 GND.n734 GND.n733 9.154
R300 GND.n741 GND.n737 9.154
R301 GND.n744 GND.n743 9.154
R302 GND.n752 GND.n746 9.154
R303 GND.n755 GND.n754 9.154
R304 GND.n758 GND.n757 9.154
R305 GND.n761 GND.n760 9.154
R306 GND.n764 GND.n763 9.154
R307 GND.n767 GND.n766 9.154
R308 GND.n770 GND.n769 9.154
R309 GND.n773 GND.n772 9.154
R310 GND.n776 GND.n775 9.154
R311 GND.n779 GND.n778 9.154
R312 GND.n786 GND.n782 9.154
R313 GND.n789 GND.n788 9.154
R314 GND.n794 GND.n791 9.154
R315 GND.n797 GND.n796 9.154
R316 GND.n800 GND.n799 9.154
R317 GND.n803 GND.n802 9.154
R318 GND.n806 GND.n805 9.154
R319 GND.n809 GND.n808 9.154
R320 GND.n812 GND.n811 9.154
R321 GND.n815 GND.n814 9.154
R322 GND.n818 GND.n817 9.154
R323 GND.n821 GND.n820 9.154
R324 GND.n828 GND.n824 9.154
R325 GND.n831 GND.n830 9.154
R326 GND.n838 GND.n833 9.154
R327 GND.n841 GND.n840 9.154
R328 GND.n844 GND.n843 9.154
R329 GND.n847 GND.n846 9.154
R330 GND.n850 GND.n849 9.154
R331 GND.n853 GND.n852 9.154
R332 GND.n856 GND.n855 9.154
R333 GND.n859 GND.n858 9.154
R334 GND.n862 GND.n861 9.154
R335 GND.n865 GND.n864 9.154
R336 GND.n432 GND.n428 9.154
R337 GND.n425 GND.n424 9.154
R338 GND.n422 GND.n417 9.154
R339 GND.n415 GND.n414 9.154
R340 GND.n412 GND.n411 9.154
R341 GND.n409 GND.n408 9.154
R342 GND.n406 GND.n405 9.154
R343 GND.n403 GND.n402 9.154
R344 GND.n400 GND.n399 9.154
R345 GND.n397 GND.n396 9.154
R346 GND.n394 GND.n393 9.154
R347 GND.n391 GND.n390 9.154
R348 GND.n384 GND.n383 9.154
R349 GND.n381 GND.n380 9.154
R350 GND.n378 GND.n375 9.154
R351 GND.n373 GND.n372 9.154
R352 GND.n370 GND.n369 9.154
R353 GND.n367 GND.n366 9.154
R354 GND.n364 GND.n363 9.154
R355 GND.n361 GND.n360 9.154
R356 GND.n358 GND.n357 9.154
R357 GND.n355 GND.n354 9.154
R358 GND.n352 GND.n351 9.154
R359 GND.n349 GND.n348 9.154
R360 GND.n342 GND.n341 9.154
R361 GND.n339 GND.n338 9.154
R362 GND.n336 GND.n331 9.154
R363 GND.n329 GND.n328 9.154
R364 GND.n326 GND.n325 9.154
R365 GND.n323 GND.n322 9.154
R366 GND.n320 GND.n319 9.154
R367 GND.n317 GND.n316 9.154
R368 GND.n314 GND.n313 9.154
R369 GND.n311 GND.n310 9.154
R370 GND.n308 GND.n307 9.154
R371 GND.n305 GND.n304 9.154
R372 GND.n298 GND.n297 9.154
R373 GND.n295 GND.n294 9.154
R374 GND.n292 GND.n287 9.154
R375 GND.n285 GND.n284 9.154
R376 GND.n282 GND.n281 9.154
R377 GND.n279 GND.n278 9.154
R378 GND.n276 GND.n275 9.154
R379 GND.n273 GND.n272 9.154
R380 GND.n270 GND.n269 9.154
R381 GND.n267 GND.n266 9.154
R382 GND.n264 GND.n263 9.154
R383 GND.n261 GND.n260 9.154
R384 GND.n254 GND.n253 9.154
R385 GND.n251 GND.n250 9.154
R386 GND.n248 GND.n243 9.154
R387 GND.n241 GND.n240 9.154
R388 GND.n238 GND.n237 9.154
R389 GND.n235 GND.n234 9.154
R390 GND.n232 GND.n231 9.154
R391 GND.n229 GND.n228 9.154
R392 GND.n226 GND.n225 9.154
R393 GND.n223 GND.n222 9.154
R394 GND.n220 GND.n219 9.154
R395 GND.n217 GND.n216 9.154
R396 GND.n210 GND.n209 9.154
R397 GND.n207 GND.n206 9.154
R398 GND.n204 GND.n201 9.154
R399 GND.n199 GND.n198 9.154
R400 GND.n196 GND.n195 9.154
R401 GND.n193 GND.n192 9.154
R402 GND.n190 GND.n189 9.154
R403 GND.n187 GND.n186 9.154
R404 GND.n184 GND.n183 9.154
R405 GND.n181 GND.n180 9.154
R406 GND.n178 GND.n177 9.154
R407 GND.n175 GND.n174 9.154
R408 GND.n168 GND.n167 9.154
R409 GND.n165 GND.n164 9.154
R410 GND.n162 GND.n157 9.154
R411 GND.n155 GND.n154 9.154
R412 GND.n152 GND.n151 9.154
R413 GND.n149 GND.n148 9.154
R414 GND.n146 GND.n145 9.154
R415 GND.n143 GND.n142 9.154
R416 GND.n140 GND.n139 9.154
R417 GND.n137 GND.n136 9.154
R418 GND.n134 GND.n133 9.154
R419 GND.n131 GND.n130 9.154
R420 GND.n124 GND.n123 9.154
R421 GND.n121 GND.n120 9.154
R422 GND.n118 GND.n115 9.154
R423 GND.n113 GND.n112 9.154
R424 GND.n110 GND.n109 9.154
R425 GND.n107 GND.n106 9.154
R426 GND.n104 GND.n103 9.154
R427 GND.n101 GND.n100 9.154
R428 GND.n98 GND.n97 9.154
R429 GND.n95 GND.n94 9.154
R430 GND.n92 GND.n91 9.154
R431 GND.n89 GND.n88 9.154
R432 GND.n82 GND.n81 9.154
R433 GND.n79 GND.n78 9.154
R434 GND.n76 GND.n75 9.154
R435 GND.n71 GND.n70 9.154
R436 GND.n68 GND.n67 9.154
R437 GND.n65 GND.n64 9.154
R438 GND.n62 GND.n61 9.154
R439 GND.n59 GND.n58 9.154
R440 GND.n52 GND.n51 9.154
R441 GND.n49 GND.n48 9.154
R442 GND.n46 GND.n45 9.154
R443 GND.n41 GND.n40 9.154
R444 GND.n38 GND.n37 9.154
R445 GND.n1 GND.n0 9.154
R446 GND.n5 GND.n4 9.154
R447 GND.n8 GND.n7 9.154
R448 GND.n11 GND.n10 9.154
R449 GND.n16 GND.n15 9.154
R450 GND.n19 GND.n18 9.154
R451 GND.n22 GND.n21 9.154
R452 GND.n29 GND.n28 9.154
R453 GND.n32 GND.n31 9.154
R454 GND.n35 GND.n34 9.154
R455 GND.n160 GND.n159 8.128
R456 GND.n246 GND.n245 8.128
R457 GND.n290 GND.n289 8.128
R458 GND.n334 GND.n333 8.128
R459 GND.n420 GND.n419 8.128
R460 GND.n836 GND.n835 8.128
R461 GND.n573 GND.n572 8.128
R462 GND.n529 GND.n528 8.128
R463 GND.n485 GND.n484 8.128
R464 GND.n436 GND.n435 4.65
R465 GND.n39 GND.n38 4.65
R466 GND.n42 GND.n41 4.65
R467 GND.n47 GND.n46 4.65
R468 GND.n50 GND.n49 4.65
R469 GND.n53 GND.n52 4.65
R470 GND.n60 GND.n59 4.65
R471 GND.n63 GND.n62 4.65
R472 GND.n66 GND.n65 4.65
R473 GND.n69 GND.n68 4.65
R474 GND.n72 GND.n71 4.65
R475 GND.n77 GND.n76 4.65
R476 GND.n80 GND.n79 4.65
R477 GND.n83 GND.n82 4.65
R478 GND.n90 GND.n89 4.65
R479 GND.n93 GND.n92 4.65
R480 GND.n96 GND.n95 4.65
R481 GND.n99 GND.n98 4.65
R482 GND.n102 GND.n101 4.65
R483 GND.n105 GND.n104 4.65
R484 GND.n108 GND.n107 4.65
R485 GND.n111 GND.n110 4.65
R486 GND.n114 GND.n113 4.65
R487 GND.n119 GND.n118 4.65
R488 GND.n122 GND.n121 4.65
R489 GND.n125 GND.n124 4.65
R490 GND.n132 GND.n131 4.65
R491 GND.n135 GND.n134 4.65
R492 GND.n138 GND.n137 4.65
R493 GND.n141 GND.n140 4.65
R494 GND.n144 GND.n143 4.65
R495 GND.n147 GND.n146 4.65
R496 GND.n150 GND.n149 4.65
R497 GND.n153 GND.n152 4.65
R498 GND.n156 GND.n155 4.65